/*---------------------------------------------------------------------------*\
| =========                 |                                                 |
| \\      /  F ield         | OpenFOAM: The Open Source CFD Toolbox           |
|  \\    /   O peration     | Version:  2.1.1                                 |
|   \\  /    A nd           | Web:      www.OpenFOAM.org                      |
|    \\/     M anipulation  |                                                 |
\*---------------------------------------------------------------------------*/
Build  : 2.1.1-221db2718bbb
Exec   : icoFoam
Date   : Sep 30 2018
Time   : 15:12:43
Host   : "yarik-VirtualBox"
PID    : 4509
Case   : /home/yarik/Documents/diploma/lab4
nProcs : 1
sigFpe : Enabling floating point exception trapping (FOAM_SIGFPE).
fileModificationChecking : Monitoring run-time modified files using timeStampMaster
allowSystemOperations : Disallowing user-supplied system call operations

// * * * * * * * * * * * * * * * * * * * * * * * * * * * * * * * * * * * * * //
Create time

Create mesh for time = 0

Reading transportProperties

Reading field p

Reading field U

Reading/calculating face flux field phi


Starting time loop

Time = 0.001

Courant Number mean: 4.79974e-06 max: 0.0270954
DILUPBiCG:  Solving for Ux, Initial residual = 0, Final residual = 0, No Iterations 0
DILUPBiCG:  Solving for Uy, Initial residual = 1, Final residual = 5.81477e-09, No Iterations 2
DILUPBiCG:  Solving for Uz, Initial residual = 0, Final residual = 0, No Iterations 0
DICPCG:  Solving for p, Initial residual = 1, Final residual = 8.99284e-07, No Iterations 267
time step continuity errors : sum local = 8.63543e-12, global = 4.39203e-14, cumulative = 4.39203e-14
DICPCG:  Solving for p, Initial residual = 0.170916, Final residual = 9.83764e-07, No Iterations 217
time step continuity errors : sum local = 3.33217e-09, global = 4.52301e-12, cumulative = 4.56693e-12
ExecutionTime = 1.21 s  ClockTime = 2 s

Time = 0.002

Courant Number mean: 0.00214326 max: 0.0933258
DILUPBiCG:  Solving for Ux, Initial residual = 0.460673, Final residual = 4.22124e-06, No Iterations 1
DILUPBiCG:  Solving for Uy, Initial residual = 0.332337, Final residual = 6.92903e-10, No Iterations 2
DILUPBiCG:  Solving for Uz, Initial residual = 0.33285, Final residual = 4.58986e-06, No Iterations 1
DICPCG:  Solving for p, Initial residual = 0.0408534, Final residual = 9.51665e-07, No Iterations 227
time step continuity errors : sum local = 3.59055e-09, global = 2.04856e-11, cumulative = 2.50526e-11
DICPCG:  Solving for p, Initial residual = 0.632612, Final residual = 9.33765e-07, No Iterations 226
time step continuity errors : sum local = 8.55543e-10, global = -2.5224e-12, cumulative = 2.25302e-11
ExecutionTime = 2.2 s  ClockTime = 3 s

Time = 0.003

Courant Number mean: 0.00214753 max: 0.110663
DILUPBiCG:  Solving for Ux, Initial residual = 0.0319614, Final residual = 6.80563e-07, No Iterations 1
DILUPBiCG:  Solving for Uy, Initial residual = 0.016369, Final residual = 4.83116e-07, No Iterations 1
DILUPBiCG:  Solving for Uz, Initial residual = 0.033963, Final residual = 7.1491e-07, No Iterations 1
DICPCG:  Solving for p, Initial residual = 0.604452, Final residual = 8.95343e-07, No Iterations 228
time step continuity errors : sum local = 1.83104e-10, global = 4.33725e-13, cumulative = 2.29639e-11
DICPCG:  Solving for p, Initial residual = 0.16607, Final residual = 9.7617e-07, No Iterations 219
time step continuity errors : sum local = 1.36629e-10, global = -1.97889e-13, cumulative = 2.2766e-11
ExecutionTime = 3.16 s  ClockTime = 4 s

Time = 0.004

Courant Number mean: 0.00214955 max: 0.111784
DILUPBiCG:  Solving for Ux, Initial residual = 0.01457, Final residual = 2.83185e-07, No Iterations 1
DILUPBiCG:  Solving for Uy, Initial residual = 0.00736193, Final residual = 2.11888e-07, No Iterations 1
DILUPBiCG:  Solving for Uz, Initial residual = 0.0138638, Final residual = 2.91235e-07, No Iterations 1
DICPCG:  Solving for p, Initial residual = 0.208439, Final residual = 9.56211e-07, No Iterations 221
time step continuity errors : sum local = 1.03938e-10, global = 4.09339e-13, cumulative = 2.31753e-11
DICPCG:  Solving for p, Initial residual = 0.0581865, Final residual = 9.17865e-07, No Iterations 193
time step continuity errors : sum local = 7.36848e-11, global = -1.14398e-13, cumulative = 2.3061e-11
ExecutionTime = 4.09 s  ClockTime = 5 s

Time = 0.005

Courant Number mean: 0.00214981 max: 0.111458
DILUPBiCG:  Solving for Ux, Initial residual = 0.00908738, Final residual = 1.88907e-07, No Iterations 1
DILUPBiCG:  Solving for Uy, Initial residual = 0.0046803, Final residual = 1.53818e-07, No Iterations 1
DILUPBiCG:  Solving for Uz, Initial residual = 0.00856016, Final residual = 1.94379e-07, No Iterations 1
DICPCG:  Solving for p, Initial residual = 0.119926, Final residual = 8.93324e-07, No Iterations 219
time step continuity errors : sum local = 6.62934e-11, global = -8.19045e-14, cumulative = 2.2979e-11
DICPCG:  Solving for p, Initial residual = 0.0311444, Final residual = 9.25508e-07, No Iterations 203
time step continuity errors : sum local = 5.63112e-11, global = -1.33098e-13, cumulative = 2.28459e-11
ExecutionTime = 5.03 s  ClockTime = 5 s

Time = 0.006

Courant Number mean: 0.00214971 max: 0.110623
DILUPBiCG:  Solving for Ux, Initial residual = 0.00678278, Final residual = 1.58334e-07, No Iterations 1
DILUPBiCG:  Solving for Uy, Initial residual = 0.00343562, Final residual = 1.17672e-07, No Iterations 1
DILUPBiCG:  Solving for Uz, Initial residual = 0.00647749, Final residual = 1.60888e-07, No Iterations 1
DICPCG:  Solving for p, Initial residual = 0.0881752, Final residual = 8.03976e-07, No Iterations 218
time step continuity errors : sum local = 4.61832e-11, global = -1.44021e-13, cumulative = 2.27019e-11
DICPCG:  Solving for p, Initial residual = 0.0211153, Final residual = 9.5993e-07, No Iterations 185
time step continuity errors : sum local = 4.7598e-11, global = 3.79088e-14, cumulative = 2.27398e-11
ExecutionTime = 5.94 s  ClockTime = 6 s

Time = 0.007

Courant Number mean: 0.0021495 max: 0.10953
DILUPBiCG:  Solving for Ux, Initial residual = 0.00547405, Final residual = 1.46383e-07, No Iterations 1
DILUPBiCG:  Solving for Uy, Initial residual = 0.00272394, Final residual = 9.57998e-08, No Iterations 1
DILUPBiCG:  Solving for Uz, Initial residual = 0.0053207, Final residual = 1.4678e-07, No Iterations 1
DICPCG:  Solving for p, Initial residual = 0.0722972, Final residual = 9.79426e-07, No Iterations 195
time step continuity errors : sum local = 4.62238e-11, global = 3.51277e-13, cumulative = 2.30911e-11
DICPCG:  Solving for p, Initial residual = 0.0160339, Final residual = 9.44151e-07, No Iterations 181
time step continuity errors : sum local = 3.95845e-11, global = 1.61825e-14, cumulative = 2.31073e-11
ExecutionTime = 6.8 s  ClockTime = 7 s

Time = 0.008

Courant Number mean: 0.00214924 max: 0.108336
DILUPBiCG:  Solving for Ux, Initial residual = 0.00462696, Final residual = 1.43159e-07, No Iterations 1
DILUPBiCG:  Solving for Uy, Initial residual = 0.00226872, Final residual = 8.17831e-08, No Iterations 1
DILUPBiCG:  Solving for Uz, Initial residual = 0.00456955, Final residual = 1.41517e-07, No Iterations 1
DICPCG:  Solving for p, Initial residual = 0.0621463, Final residual = 9.39669e-07, No Iterations 194
time step continuity errors : sum local = 3.77069e-11, global = 2.56331e-13, cumulative = 2.33636e-11
DICPCG:  Solving for p, Initial residual = 0.0128888, Final residual = 9.11119e-07, No Iterations 179
time step continuity errors : sum local = 3.31043e-11, global = -5.66932e-14, cumulative = 2.33069e-11
ExecutionTime = 7.66 s  ClockTime = 8 s

Time = 0.009

Courant Number mean: 0.00214895 max: 0.107085
DILUPBiCG:  Solving for Ux, Initial residual = 0.00403821, Final residual = 1.4542e-07, No Iterations 1
DILUPBiCG:  Solving for Uy, Initial residual = 0.00195674, Final residual = 7.23553e-08, No Iterations 1
DILUPBiCG:  Solving for Uz, Initial residual = 0.00404326, Final residual = 1.41732e-07, No Iterations 1
DICPCG:  Solving for p, Initial residual = 0.0547813, Final residual = 9.70306e-07, No Iterations 194
time step continuity errors : sum local = 3.3892e-11, global = 1.43746e-13, cumulative = 2.34507e-11
DICPCG:  Solving for p, Initial residual = 0.0107159, Final residual = 9.64461e-07, No Iterations 177
time step continuity errors : sum local = 3.09259e-11, global = 3.11834e-14, cumulative = 2.34819e-11
ExecutionTime = 8.52 s  ClockTime = 9 s

Time = 0.01

Courant Number mean: 0.00214863 max: 0.105814
DILUPBiCG:  Solving for Ux, Initial residual = 0.00360801, Final residual = 1.51804e-07, No Iterations 1
DILUPBiCG:  Solving for Uy, Initial residual = 0.00173329, Final residual = 6.5804e-08, No Iterations 1
DILUPBiCG:  Solving for Uz, Initial residual = 0.00365722, Final residual = 1.45729e-07, No Iterations 1
DICPCG:  Solving for p, Initial residual = 0.0492599, Final residual = 9.57461e-07, No Iterations 192
time step continuity errors : sum local = 2.96163e-11, global = 1.41907e-13, cumulative = 2.36238e-11
DICPCG:  Solving for p, Initial residual = 0.00911451, Final residual = 9.40509e-07, No Iterations 175
time step continuity errors : sum local = 2.69873e-11, global = -3.90787e-14, cumulative = 2.35847e-11
ExecutionTime = 9.78 s  ClockTime = 10 s

Time = 0.011

Courant Number mean: 0.00214831 max: 0.104538
DILUPBiCG:  Solving for Ux, Initial residual = 0.00328304, Final residual = 1.62429e-07, No Iterations 1
DILUPBiCG:  Solving for Uy, Initial residual = 0.00156661, Final residual = 6.116e-08, No Iterations 1
DILUPBiCG:  Solving for Uz, Initial residual = 0.00336253, Final residual = 1.53114e-07, No Iterations 1
DICPCG:  Solving for p, Initial residual = 0.0448709, Final residual = 9.88497e-07, No Iterations 192
time step continuity errors : sum local = 2.74399e-11, global = 1.69402e-14, cumulative = 2.36016e-11
DICPCG:  Solving for p, Initial residual = 0.00790078, Final residual = 9.62135e-07, No Iterations 170
time step continuity errors : sum local = 2.49864e-11, global = -1.05713e-13, cumulative = 2.34959e-11
ExecutionTime = 10.65 s  ClockTime = 11 s

Time = 0.012

Courant Number mean: 0.00214799 max: 0.103268
DILUPBiCG:  Solving for Ux, Initial residual = 0.00303153, Final residual = 1.77774e-07, No Iterations 1
DILUPBiCG:  Solving for Uy, Initial residual = 0.00144032, Final residual = 5.77982e-08, No Iterations 1
DILUPBiCG:  Solving for Uz, Initial residual = 0.00312992, Final residual = 1.63722e-07, No Iterations 1
DICPCG:  Solving for p, Initial residual = 0.0412597, Final residual = 9.15721e-07, No Iterations 190
time step continuity errors : sum local = 2.3061e-11, global = 4.605e-14, cumulative = 2.3542e-11
DICPCG:  Solving for p, Initial residual = 0.0068919, Final residual = 9.23742e-07, No Iterations 168
time step continuity errors : sum local = 2.20236e-11, global = -1.32565e-15, cumulative = 2.35406e-11
ExecutionTime = 11.48 s  ClockTime = 12 s

Time = 0.013

Courant Number mean: 0.00214766 max: 0.102016
DILUPBiCG:  Solving for Ux, Initial residual = 0.00283181, Final residual = 1.9867e-07, No Iterations 1
DILUPBiCG:  Solving for Uy, Initial residual = 0.00134225, Final residual = 5.53269e-08, No Iterations 1
DILUPBiCG:  Solving for Uz, Initial residual = 0.00294161, Final residual = 1.77709e-07, No Iterations 1
DICPCG:  Solving for p, Initial residual = 0.0381301, Final residual = 9.34837e-07, No Iterations 190
time step continuity errors : sum local = 2.16094e-11, global = -5.82746e-14, cumulative = 2.34824e-11
DICPCG:  Solving for p, Initial residual = 0.00595484, Final residual = 8.95716e-07, No Iterations 167
time step continuity errors : sum local = 2.01887e-11, global = 1.87617e-14, cumulative = 2.35011e-11
ExecutionTime = 12.31 s  ClockTime = 13 s

Time = 0.014

Courant Number mean: 0.00214733 max: 0.100788
DILUPBiCG:  Solving for Ux, Initial residual = 0.00266948, Final residual = 2.27559e-07, No Iterations 1
DILUPBiCG:  Solving for Uy, Initial residual = 0.00126366, Final residual = 5.35016e-08, No Iterations 1
DILUPBiCG:  Solving for Uz, Initial residual = 0.00278565, Final residual = 1.96122e-07, No Iterations 1
DICPCG:  Solving for p, Initial residual = 0.0347162, Final residual = 9.67096e-07, No Iterations 190
time step continuity errors : sum local = 2.11335e-11, global = -1.82901e-13, cumulative = 2.33182e-11
DICPCG:  Solving for p, Initial residual = 0.00516433, Final residual = 9.51233e-07, No Iterations 165
time step continuity errors : sum local = 2.0507e-11, global = 4.85686e-14, cumulative = 2.33668e-11
ExecutionTime = 13.12 s  ClockTime = 14 s

Time = 0.015

Courant Number mean: 0.002147 max: 0.0995895
DILUPBiCG:  Solving for Ux, Initial residual = 0.00253503, Final residual = 2.6848e-07, No Iterations 1
DILUPBiCG:  Solving for Uy, Initial residual = 0.00119992, Final residual = 5.21408e-08, No Iterations 1
DILUPBiCG:  Solving for Uz, Initial residual = 0.00265465, Final residual = 2.2024e-07, No Iterations 1
DICPCG:  Solving for p, Initial residual = 0.0315416, Final residual = 9.42461e-07, No Iterations 193
time step continuity errors : sum local = 1.97519e-11, global = -3.56549e-13, cumulative = 2.30103e-11
DICPCG:  Solving for p, Initial residual = 0.00452761, Final residual = 9.78065e-07, No Iterations 164
time step continuity errors : sum local = 2.02566e-11, global = 6.48694e-14, cumulative = 2.30751e-11
ExecutionTime = 13.96 s  ClockTime = 14 s

Time = 0.016

Courant Number mean: 0.00214667 max: 0.0984232
DILUPBiCG:  Solving for Ux, Initial residual = 0.00242207, Final residual = 3.28917e-07, No Iterations 1
DILUPBiCG:  Solving for Uy, Initial residual = 0.0011474, Final residual = 5.10979e-08, No Iterations 1
DILUPBiCG:  Solving for Uz, Initial residual = 0.00254301, Final residual = 2.52296e-07, No Iterations 1
DICPCG:  Solving for p, Initial residual = 0.0288163, Final residual = 9.98903e-07, No Iterations 180
time step continuity errors : sum local = 2.01611e-11, global = -2.5336e-13, cumulative = 2.28218e-11
DICPCG:  Solving for p, Initial residual = 0.00400188, Final residual = 9.40998e-07, No Iterations 164
time step continuity errors : sum local = 1.87788e-11, global = 4.82206e-14, cumulative = 2.287e-11
ExecutionTime = 14.76 s  ClockTime = 15 s

Time = 0.017

Courant Number mean: 0.00214635 max: 0.0972912
DILUPBiCG:  Solving for Ux, Initial residual = 0.00232529, Final residual = 4.25976e-07, No Iterations 1
DILUPBiCG:  Solving for Uy, Initial residual = 0.00110337, Final residual = 5.03089e-08, No Iterations 1
DILUPBiCG:  Solving for Uz, Initial residual = 0.00244655, Final residual = 2.96941e-07, No Iterations 1
DICPCG:  Solving for p, Initial residual = 0.0264941, Final residual = 9.43239e-07, No Iterations 192
time step continuity errors : sum local = 1.83836e-11, global = -5.91875e-14, cumulative = 2.28108e-11
DICPCG:  Solving for p, Initial residual = 0.00357306, Final residual = 8.95544e-07, No Iterations 163
time step continuity errors : sum local = 1.72636e-11, global = 1.0841e-13, cumulative = 2.29192e-11
ExecutionTime = 15.58 s  ClockTime = 16 s

Time = 0.018

Courant Number mean: 0.00214603 max: 0.096194
DILUPBiCG:  Solving for Ux, Initial residual = 0.00224177, Final residual = 6.01029e-07, No Iterations 1
DILUPBiCG:  Solving for Uy, Initial residual = 0.00106576, Final residual = 4.96819e-08, No Iterations 1
DILUPBiCG:  Solving for Uz, Initial residual = 0.00236239, Final residual = 3.60803e-07, No Iterations 1
DICPCG:  Solving for p, Initial residual = 0.0244808, Final residual = 9.76836e-07, No Iterations 175
time step continuity errors : sum local = 1.84241e-11, global = -1.63171e-13, cumulative = 2.2756e-11
DICPCG:  Solving for p, Initial residual = 0.00320287, Final residual = 8.85186e-07, No Iterations 163
time step continuity errors : sum local = 1.65186e-11, global = 6.82436e-14, cumulative = 2.28243e-11
ExecutionTime = 16.37 s  ClockTime = 17 s

Time = 0.019

Courant Number mean: 0.00214571 max: 0.0951313
DILUPBiCG:  Solving for Ux, Initial residual = 0.00216902, Final residual = 1.00412e-06, No Iterations 1
DILUPBiCG:  Solving for Uy, Initial residual = 0.00103321, Final residual = 4.91858e-08, No Iterations 1
DILUPBiCG:  Solving for Uz, Initial residual = 0.00228808, Final residual = 4.596e-07, No Iterations 1
DICPCG:  Solving for p, Initial residual = 0.022684, Final residual = 9.85213e-07, No Iterations 184
time step continuity errors : sum local = 1.8018e-11, global = -2.07263e-14, cumulative = 2.28035e-11
DICPCG:  Solving for p, Initial residual = 0.00288795, Final residual = 8.34986e-07, No Iterations 162
time step continuity errors : sum local = 1.51147e-11, global = 1.33464e-13, cumulative = 2.2937e-11
ExecutionTime = 17.17 s  ClockTime = 18 s

Time = 0.02

Courant Number mean: 0.00214539 max: 0.0941082
DILUPBiCG:  Solving for Ux, Initial residual = 0.00210532, Final residual = 2.78246e-06, No Iterations 1
DILUPBiCG:  Solving for Uy, Initial residual = 0.0010048, Final residual = 4.87909e-08, No Iterations 1
DILUPBiCG:  Solving for Uz, Initial residual = 0.002222, Final residual = 6.26898e-07, No Iterations 1
DICPCG:  Solving for p, Initial residual = 0.0211527, Final residual = 9.66746e-07, No Iterations 183
time step continuity errors : sum local = 1.71742e-11, global = -2.58672e-14, cumulative = 2.29111e-11
DICPCG:  Solving for p, Initial residual = 0.00262086, Final residual = 9.03946e-07, No Iterations 161
time step continuity errors : sum local = 1.58992e-11, global = 1.63409e-13, cumulative = 2.30746e-11
ExecutionTime = 18.41 s  ClockTime = 19 s

Time = 0.021

Courant Number mean: 0.00214508 max: 0.0931204
DILUPBiCG:  Solving for Ux, Initial residual = 0.00204886, Final residual = 4.07118e-06, No Iterations 1
DILUPBiCG:  Solving for Uy, Initial residual = 0.000979685, Final residual = 4.84576e-08, No Iterations 1
DILUPBiCG:  Solving for Uz, Initial residual = 0.00216253, Final residual = 9.71816e-07, No Iterations 1
DICPCG:  Solving for p, Initial residual = 0.0198212, Final residual = 9.88799e-07, No Iterations 188
time step continuity errors : sum local = 1.70891e-11, global = 2.46781e-13, cumulative = 2.33213e-11
DICPCG:  Solving for p, Initial residual = 0.002402, Final residual = 9.70058e-07, No Iterations 160
time step continuity errors : sum local = 1.66035e-11, global = 1.80927e-13, cumulative = 2.35023e-11
ExecutionTime = 19.22 s  ClockTime = 20 s

Time = 0.022

Courant Number mean: 0.00214477 max: 0.0921676
DILUPBiCG:  Solving for Ux, Initial residual = 0.0019984, Final residual = 1.23042e-06, No Iterations 1
DILUPBiCG:  Solving for Uy, Initial residual = 0.000957367, Final residual = 4.81819e-08, No Iterations 1
DILUPBiCG:  Solving for Uz, Initial residual = 0.00210875, Final residual = 2.11177e-06, No Iterations 1
DICPCG:  Solving for p, Initial residual = 0.0186021, Final residual = 9.61865e-07, No Iterations 174
time step continuity errors : sum local = 1.6195e-11, global = -1.02849e-13, cumulative = 2.33994e-11
DICPCG:  Solving for p, Initial residual = 0.00220366, Final residual = 9.45397e-07, No Iterations 160
time step continuity errors : sum local = 1.57686e-11, global = 1.55603e-13, cumulative = 2.3555e-11
ExecutionTime = 20 s  ClockTime = 20 s

Time = 0.023

Courant Number mean: 0.00214446 max: 0.0912494
DILUPBiCG:  Solving for Ux, Initial residual = 0.00195301, Final residual = 7.43867e-07, No Iterations 1
DILUPBiCG:  Solving for Uy, Initial residual = 0.000937479, Final residual = 4.79322e-08, No Iterations 1
DILUPBiCG:  Solving for Uz, Initial residual = 0.00205994, Final residual = 1.68905e-11, No Iterations 2
DICPCG:  Solving for p, Initial residual = 0.017527, Final residual = 9.759e-07, No Iterations 185
time step continuity errors : sum local = 1.60284e-11, global = 1.92114e-13, cumulative = 2.37471e-11
DICPCG:  Solving for p, Initial residual = 0.0020352, Final residual = 9.07877e-07, No Iterations 159
time step continuity errors : sum local = 1.47759e-11, global = 1.69174e-13, cumulative = 2.39163e-11
ExecutionTime = 20.81 s  ClockTime = 21 s

Time = 0.024

Courant Number mean: 0.00214415 max: 0.0903654
DILUPBiCG:  Solving for Ux, Initial residual = 0.00191196, Final residual = 5.43156e-07, No Iterations 1
DILUPBiCG:  Solving for Uy, Initial residual = 0.000919462, Final residual = 4.77099e-08, No Iterations 1
DILUPBiCG:  Solving for Uz, Initial residual = 0.00201522, Final residual = 1.74194e-06, No Iterations 1
DICPCG:  Solving for p, Initial residual = 0.0165733, Final residual = 9.90954e-07, No Iterations 173
time step continuity errors : sum local = 1.58948e-11, global = -1.25591e-13, cumulative = 2.37907e-11
DICPCG:  Solving for p, Initial residual = 0.00188672, Final residual = 8.81542e-07, No Iterations 159
time step continuity errors : sum local = 1.40143e-11, global = 1.50296e-13, cumulative = 2.3941e-11
ExecutionTime = 21.6 s  ClockTime = 22 s

Time = 0.025

Courant Number mean: 0.00214385 max: 0.0895147
DILUPBiCG:  Solving for Ux, Initial residual = 0.00187452, Final residual = 4.33474e-07, No Iterations 1
DILUPBiCG:  Solving for Uy, Initial residual = 0.000902906, Final residual = 4.74994e-08, No Iterations 1
DILUPBiCG:  Solving for Uz, Initial residual = 0.00197393, Final residual = 9.3902e-07, No Iterations 1
DICPCG:  Solving for p, Initial residual = 0.0156861, Final residual = 9.28232e-07, No Iterations 172
time step continuity errors : sum local = 1.45549e-11, global = -1.33783e-13, cumulative = 2.38072e-11
DICPCG:  Solving for p, Initial residual = 0.00175434, Final residual = 9.59345e-07, No Iterations 158
time step continuity errors : sum local = 1.49129e-11, global = 1.49933e-13, cumulative = 2.39572e-11
ExecutionTime = 22.37 s  ClockTime = 23 s

Time = 0.026

Courant Number mean: 0.00214355 max: 0.0886967
DILUPBiCG:  Solving for Ux, Initial residual = 0.00184018, Final residual = 3.64364e-07, No Iterations 1
DILUPBiCG:  Solving for Uy, Initial residual = 0.00088773, Final residual = 4.73115e-08, No Iterations 1
DILUPBiCG:  Solving for Uz, Initial residual = 0.00193578, Final residual = 6.53093e-07, No Iterations 1
DICPCG:  Solving for p, Initial residual = 0.0148975, Final residual = 9.3731e-07, No Iterations 170
time step continuity errors : sum local = 1.43817e-11, global = -8.85141e-14, cumulative = 2.38686e-11
DICPCG:  Solving for p, Initial residual = 0.00164014, Final residual = 9.10843e-07, No Iterations 158
time step continuity errors : sum local = 1.38583e-11, global = 1.30259e-13, cumulative = 2.39989e-11
ExecutionTime = 23.12 s  ClockTime = 24 s

Time = 0.027

Courant Number mean: 0.00214325 max: 0.0879106
DILUPBiCG:  Solving for Ux, Initial residual = 0.00180833, Final residual = 3.16975e-07, No Iterations 1
DILUPBiCG:  Solving for Uy, Initial residual = 0.000873688, Final residual = 4.71289e-08, No Iterations 1
DILUPBiCG:  Solving for Uz, Initial residual = 0.00190042, Final residual = 5.06916e-07, No Iterations 1
DICPCG:  Solving for p, Initial residual = 0.0141505, Final residual = 9.56252e-07, No Iterations 169
time step continuity errors : sum local = 1.43707e-11, global = 1.32121e-13, cumulative = 2.4131e-11
DICPCG:  Solving for p, Initial residual = 0.00153477, Final residual = 9.1795e-07, No Iterations 157
time step continuity errors : sum local = 1.36826e-11, global = 1.06057e-13, cumulative = 2.42371e-11
ExecutionTime = 23.96 s  ClockTime = 24 s

Time = 0.028

Courant Number mean: 0.00214295 max: 0.0871556
DILUPBiCG:  Solving for Ux, Initial residual = 0.00177879, Final residual = 2.82478e-07, No Iterations 1
DILUPBiCG:  Solving for Uy, Initial residual = 0.000860619, Final residual = 4.69541e-08, No Iterations 1
DILUPBiCG:  Solving for Uz, Initial residual = 0.00186753, Final residual = 4.18318e-07, No Iterations 1
DICPCG:  Solving for p, Initial residual = 0.0134996, Final residual = 9.48669e-07, No Iterations 170
time step continuity errors : sum local = 1.39753e-11, global = 1.36616e-13, cumulative = 2.43737e-11
DICPCG:  Solving for p, Initial residual = 0.00144616, Final residual = 9.41051e-07, No Iterations 156
time step continuity errors : sum local = 1.37528e-11, global = 3.5363e-15, cumulative = 2.43772e-11
ExecutionTime = 24.72 s  ClockTime = 25 s

Time = 0.029

Courant Number mean: 0.00214265 max: 0.0864309
DILUPBiCG:  Solving for Ux, Initial residual = 0.00175126, Final residual = 2.56225e-07, No Iterations 1
DILUPBiCG:  Solving for Uy, Initial residual = 0.000848368, Final residual = 4.67882e-08, No Iterations 1
DILUPBiCG:  Solving for Uz, Initial residual = 0.00183679, Final residual = 3.58758e-07, No Iterations 1
DICPCG:  Solving for p, Initial residual = 0.0129027, Final residual = 9.97952e-07, No Iterations 171
time step continuity errors : sum local = 1.44222e-11, global = 8.2386e-14, cumulative = 2.44596e-11
DICPCG:  Solving for p, Initial residual = 0.00136726, Final residual = 9.30088e-07, No Iterations 155
time step continuity errors : sum local = 1.33372e-11, global = -7.08248e-14, cumulative = 2.43888e-11
ExecutionTime = 25.49 s  ClockTime = 26 s

Time = 0.03

Courant Number mean: 0.00214236 max: 0.0857354
DILUPBiCG:  Solving for Ux, Initial residual = 0.00172551, Final residual = 2.35486e-07, No Iterations 1
DILUPBiCG:  Solving for Uy, Initial residual = 0.000836833, Final residual = 4.6633e-08, No Iterations 1
DILUPBiCG:  Solving for Uz, Initial residual = 0.00180794, Final residual = 3.16105e-07, No Iterations 1
DICPCG:  Solving for p, Initial residual = 0.0123396, Final residual = 9.83188e-07, No Iterations 170
time step continuity errors : sum local = 1.3949e-11, global = 1.04327e-13, cumulative = 2.44931e-11
DICPCG:  Solving for p, Initial residual = 0.00129216, Final residual = 9.1643e-07, No Iterations 154
time step continuity errors : sum local = 1.29035e-11, global = -1.73412e-13, cumulative = 2.43197e-11
ExecutionTime = 26.68 s  ClockTime = 27 s

Time = 0.031

Courant Number mean: 0.00214206 max: 0.0850684
DILUPBiCG:  Solving for Ux, Initial residual = 0.00170137, Final residual = 2.1872e-07, No Iterations 1
DILUPBiCG:  Solving for Uy, Initial residual = 0.000825931, Final residual = 4.64735e-08, No Iterations 1
DILUPBiCG:  Solving for Uz, Initial residual = 0.00178077, Final residual = 2.83971e-07, No Iterations 1
DICPCG:  Solving for p, Initial residual = 0.0118507, Final residual = 9.69338e-07, No Iterations 169
time step continuity errors : sum local = 1.351e-11, global = 1.14913e-13, cumulative = 2.44346e-11
DICPCG:  Solving for p, Initial residual = 0.00123096, Final residual = 9.76718e-07, No Iterations 149
time step continuity errors : sum local = 1.35124e-11, global = -2.24642e-13, cumulative = 2.421e-11
ExecutionTime = 27.42 s  ClockTime = 28 s

Time = 0.032

Courant Number mean: 0.00214177 max: 0.084429
DILUPBiCG:  Solving for Ux, Initial residual = 0.0016787, Final residual = 2.04948e-07, No Iterations 1
DILUPBiCG:  Solving for Uy, Initial residual = 0.000815618, Final residual = 4.63267e-08, No Iterations 1
DILUPBiCG:  Solving for Uz, Initial residual = 0.00175509, Final residual = 2.5904e-07, No Iterations 1
DICPCG:  Solving for p, Initial residual = 0.0113728, Final residual = 9.17631e-07, No Iterations 168
time step continuity errors : sum local = 1.25715e-11, global = 1.03522e-13, cumulative = 2.43135e-11
DICPCG:  Solving for p, Initial residual = 0.00116842, Final residual = 9.72813e-07, No Iterations 147
time step continuity errors : sum local = 1.32313e-11, global = 9.97389e-14, cumulative = 2.44132e-11
ExecutionTime = 28.16 s  ClockTime = 29 s

Time = 0.033

Courant Number mean: 0.00214148 max: 0.0838159
DILUPBiCG:  Solving for Ux, Initial residual = 0.00165727, Final residual = 1.93336e-07, No Iterations 1
DILUPBiCG:  Solving for Uy, Initial residual = 0.000805804, Final residual = 4.61719e-08, No Iterations 1
DILUPBiCG:  Solving for Uz, Initial residual = 0.00173081, Final residual = 2.39003e-07, No Iterations 1
DICPCG:  Solving for p, Initial residual = 0.0109524, Final residual = 9.4186e-07, No Iterations 167
time step continuity errors : sum local = 1.26907e-11, global = 9.4365e-14, cumulative = 2.45076e-11
DICPCG:  Solving for p, Initial residual = 0.00112167, Final residual = 8.98446e-07, No Iterations 151
time step continuity errors : sum local = 1.202e-11, global = 1.62258e-13, cumulative = 2.46699e-11
ExecutionTime = 28.92 s  ClockTime = 29 s

Time = 0.034

Courant Number mean: 0.0021412 max: 0.0832285
DILUPBiCG:  Solving for Ux, Initial residual = 0.00163695, Final residual = 1.83173e-07, No Iterations 1
DILUPBiCG:  Solving for Uy, Initial residual = 0.000796432, Final residual = 4.60159e-08, No Iterations 1
DILUPBiCG:  Solving for Uz, Initial residual = 0.00170776, Final residual = 2.22614e-07, No Iterations 1
DICPCG:  Solving for p, Initial residual = 0.0105172, Final residual = 8.84768e-07, No Iterations 168
time step continuity errors : sum local = 1.17313e-11, global = 8.71627e-14, cumulative = 2.4757e-11
DICPCG:  Solving for p, Initial residual = 0.00106225, Final residual = 9.90766e-07, No Iterations 149
time step continuity errors : sum local = 1.30464e-11, global = -3.26727e-13, cumulative = 2.44303e-11
ExecutionTime = 29.69 s  ClockTime = 30 s

Time = 0.035

Courant Number mean: 0.00214091 max: 0.0826677
DILUPBiCG:  Solving for Ux, Initial residual = 0.00161749, Final residual = 1.74562e-07, No Iterations 1
DILUPBiCG:  Solving for Uy, Initial residual = 0.00078752, Final residual = 4.5889e-08, No Iterations 1
DILUPBiCG:  Solving for Uz, Initial residual = 0.00168585, Final residual = 2.09113e-07, No Iterations 1
DICPCG:  Solving for p, Initial residual = 0.0101623, Final residual = 9.19503e-07, No Iterations 168
time step continuity errors : sum local = 1.20038e-11, global = 7.87165e-14, cumulative = 2.4509e-11
DICPCG:  Solving for p, Initial residual = 0.00102659, Final residual = 9.02992e-07, No Iterations 144
time step continuity errors : sum local = 1.17087e-11, global = -1.90225e-13, cumulative = 2.43188e-11
ExecutionTime = 30.43 s  ClockTime = 31 s

Time = 0.036

Courant Number mean: 0.00214062 max: 0.0821311
DILUPBiCG:  Solving for Ux, Initial residual = 0.00159897, Final residual = 1.67068e-07, No Iterations 1
DILUPBiCG:  Solving for Uy, Initial residual = 0.000778995, Final residual = 4.57551e-08, No Iterations 1
DILUPBiCG:  Solving for Uz, Initial residual = 0.0016649, Final residual = 1.97812e-07, No Iterations 1
DICPCG:  Solving for p, Initial residual = 0.00978644, Final residual = 8.7879e-07, No Iterations 167
time step continuity errors : sum local = 1.13009e-11, global = 7.80167e-14, cumulative = 2.43968e-11
DICPCG:  Solving for p, Initial residual = 0.000977275, Final residual = 8.532e-07, No Iterations 153
time step continuity errors : sum local = 1.08998e-11, global = -1.61773e-14, cumulative = 2.43806e-11
ExecutionTime = 31.17 s  ClockTime = 32 s

Time = 0.037

Courant Number mean: 0.00214034 max: 0.0816177
DILUPBiCG:  Solving for Ux, Initial residual = 0.00158131, Final residual = 1.60301e-07, No Iterations 1
DILUPBiCG:  Solving for Uy, Initial residual = 0.000770798, Final residual = 4.56213e-08, No Iterations 1
DILUPBiCG:  Solving for Uz, Initial residual = 0.00164495, Final residual = 1.87646e-07, No Iterations 1
DICPCG:  Solving for p, Initial residual = 0.009471, Final residual = 9.26687e-07, No Iterations 167
time step continuity errors : sum local = 1.17445e-11, global = 1.18403e-13, cumulative = 2.4499e-11
DICPCG:  Solving for p, Initial residual = 0.000948026, Final residual = 9.97205e-07, No Iterations 152
time step continuity errors : sum local = 1.25568e-11, global = 1.25945e-14, cumulative = 2.45116e-11
ExecutionTime = 31.92 s  ClockTime = 32 s

Time = 0.038

Courant Number mean: 0.00214006 max: 0.0811265
DILUPBiCG:  Solving for Ux, Initial residual = 0.00156441, Final residual = 1.54315e-07, No Iterations 1
DILUPBiCG:  Solving for Uy, Initial residual = 0.000762911, Final residual = 4.55034e-08, No Iterations 1
DILUPBiCG:  Solving for Uz, Initial residual = 0.00162588, Final residual = 1.78738e-07, No Iterations 1
DICPCG:  Solving for p, Initial residual = 0.00915496, Final residual = 8.80155e-07, No Iterations 167
time step continuity errors : sum local = 1.09981e-11, global = 1.05963e-13, cumulative = 2.46176e-11
DICPCG:  Solving for p, Initial residual = 0.000910679, Final residual = 9.13979e-07, No Iterations 152
time step continuity errors : sum local = 1.13489e-11, global = -7.32202e-15, cumulative = 2.46103e-11
ExecutionTime = 32.67 s  ClockTime = 33 s

Time = 0.039

Courant Number mean: 0.00213978 max: 0.0806567
DILUPBiCG:  Solving for Ux, Initial residual = 0.00154823, Final residual = 1.48883e-07, No Iterations 1
DILUPBiCG:  Solving for Uy, Initial residual = 0.000755313, Final residual = 4.53863e-08, No Iterations 1
DILUPBiCG:  Solving for Uz, Initial residual = 0.00160756, Final residual = 1.7085e-07, No Iterations 1
DICPCG:  Solving for p, Initial residual = 0.00890042, Final residual = 9.07745e-07, No Iterations 167
time step continuity errors : sum local = 1.11881e-11, global = 1.12906e-13, cumulative = 2.47232e-11
DICPCG:  Solving for p, Initial residual = 0.000891012, Final residual = 9.04622e-07, No Iterations 152
time step continuity errors : sum local = 1.10807e-11, global = -3.0275e-14, cumulative = 2.46929e-11
ExecutionTime = 33.41 s  ClockTime = 34 s

Time = 0.04

Courant Number mean: 0.0021395 max: 0.0802073
DILUPBiCG:  Solving for Ux, Initial residual = 0.00153263, Final residual = 1.43978e-07, No Iterations 1
DILUPBiCG:  Solving for Uy, Initial residual = 0.000747971, Final residual = 4.52743e-08, No Iterations 1
DILUPBiCG:  Solving for Uz, Initial residual = 0.00158998, Final residual = 1.63847e-07, No Iterations 1
DICPCG:  Solving for p, Initial residual = 0.00862656, Final residual = 9.6072e-07, No Iterations 166
time step continuity errors : sum local = 1.16839e-11, global = 1.03354e-13, cumulative = 2.47963e-11
DICPCG:  Solving for p, Initial residual = 0.000862399, Final residual = 9.68884e-07, No Iterations 151
time step continuity errors : sum local = 1.17121e-11, global = -2.95008e-14, cumulative = 2.47668e-11
ExecutionTime = 34.57 s  ClockTime = 35 s

Time = 0.041

Courant Number mean: 0.00213922 max: 0.0798043
DILUPBiCG:  Solving for Ux, Initial residual = 0.00151758, Final residual = 1.39448e-07, No Iterations 1
DILUPBiCG:  Solving for Uy, Initial residual = 0.00074087, Final residual = 4.51571e-08, No Iterations 1
DILUPBiCG:  Solving for Uz, Initial residual = 0.00157311, Final residual = 1.57583e-07, No Iterations 1
DICPCG:  Solving for p, Initial residual = 0.00837597, Final residual = 9.6122e-07, No Iterations 166
time step continuity errors : sum local = 1.15394e-11, global = 1.01345e-13, cumulative = 2.48681e-11
DICPCG:  Solving for p, Initial residual = 0.000839641, Final residual = 9.21976e-07, No Iterations 152
time step continuity errors : sum local = 1.10027e-11, global = -4.30432e-14, cumulative = 2.48251e-11
ExecutionTime = 35.3 s  ClockTime = 36 s

Time = 0.042

Courant Number mean: 0.00213894 max: 0.0797168
DILUPBiCG:  Solving for Ux, Initial residual = 0.00150301, Final residual = 1.3527e-07, No Iterations 1
DILUPBiCG:  Solving for Uy, Initial residual = 0.000734006, Final residual = 4.5046e-08, No Iterations 1
DILUPBiCG:  Solving for Uz, Initial residual = 0.00155682, Final residual = 1.51857e-07, No Iterations 1
DICPCG:  Solving for p, Initial residual = 0.0081267, Final residual = 8.16889e-07, No Iterations 167
time step continuity errors : sum local = 9.68372e-12, global = 8.78683e-14, cumulative = 2.49129e-11
DICPCG:  Solving for p, Initial residual = 0.000813568, Final residual = 9.223e-07, No Iterations 152
time step continuity errors : sum local = 1.08697e-11, global = -3.9817e-14, cumulative = 2.48731e-11
ExecutionTime = 36.03 s  ClockTime = 37 s

Time = 0.043

Courant Number mean: 0.00213867 max: 0.0796327
DILUPBiCG:  Solving for Ux, Initial residual = 0.0014889, Final residual = 1.31437e-07, No Iterations 1
DILUPBiCG:  Solving for Uy, Initial residual = 0.000727331, Final residual = 4.49316e-08, No Iterations 1
DILUPBiCG:  Solving for Uz, Initial residual = 0.00154113, Final residual = 1.46734e-07, No Iterations 1
DICPCG:  Solving for p, Initial residual = 0.00787746, Final residual = 8.20367e-07, No Iterations 167
time step continuity errors : sum local = 9.60642e-12, global = 8.80199e-14, cumulative = 2.49611e-11
DICPCG:  Solving for p, Initial residual = 0.000781522, Final residual = 9.35586e-07, No Iterations 151
time step continuity errors : sum local = 1.08935e-11, global = -1.62951e-14, cumulative = 2.49448e-11
ExecutionTime = 36.77 s  ClockTime = 37 s

Time = 0.044

Courant Number mean: 0.00213839 max: 0.0795519
DILUPBiCG:  Solving for Ux, Initial residual = 0.00147529, Final residual = 1.27894e-07, No Iterations 1
DILUPBiCG:  Solving for Uy, Initial residual = 0.000720834, Final residual = 4.48238e-08, No Iterations 1
DILUPBiCG:  Solving for Uz, Initial residual = 0.00152601, Final residual = 1.42024e-07, No Iterations 1
DICPCG:  Solving for p, Initial residual = 0.00766573, Final residual = 8.50607e-07, No Iterations 167
time step continuity errors : sum local = 9.84277e-12, global = 9.72427e-14, cumulative = 2.50421e-11
DICPCG:  Solving for p, Initial residual = 0.000761629, Final residual = 9.7064e-07, No Iterations 151
time step continuity errors : sum local = 1.11694e-11, global = 1.03363e-14, cumulative = 2.50524e-11
ExecutionTime = 37.51 s  ClockTime = 38 s

Time = 0.045

Courant Number mean: 0.00213812 max: 0.0794742
DILUPBiCG:  Solving for Ux, Initial residual = 0.00146217, Final residual = 1.24581e-07, No Iterations 1
DILUPBiCG:  Solving for Uy, Initial residual = 0.000714515, Final residual = 4.47232e-08, No Iterations 1
DILUPBiCG:  Solving for Uz, Initial residual = 0.00151137, Final residual = 1.3766e-07, No Iterations 1
DICPCG:  Solving for p, Initial residual = 0.00744451, Final residual = 9.86897e-07, No Iterations 166
time step continuity errors : sum local = 1.12885e-11, global = 9.70282e-14, cumulative = 2.51494e-11
DICPCG:  Solving for p, Initial residual = 0.000737441, Final residual = 9.42412e-07, No Iterations 150
time step continuity errors : sum local = 1.07211e-11, global = 2.31554e-14, cumulative = 2.51726e-11
ExecutionTime = 38.24 s  ClockTime = 39 s

Time = 0.046

Courant Number mean: 0.00213785 max: 0.0793996
DILUPBiCG:  Solving for Ux, Initial residual = 0.00144943, Final residual = 1.21483e-07, No Iterations 1
DILUPBiCG:  Solving for Uy, Initial residual = 0.000708362, Final residual = 4.46274e-08, No Iterations 1
DILUPBiCG:  Solving for Uz, Initial residual = 0.0014972, Final residual = 1.33643e-07, No Iterations 1
DICPCG:  Solving for p, Initial residual = 0.00729542, Final residual = 9.3975e-07, No Iterations 166
time step continuity errors : sum local = 1.06285e-11, global = 8.88613e-14, cumulative = 2.52615e-11
DICPCG:  Solving for p, Initial residual = 0.000735194, Final residual = 8.81855e-07, No Iterations 153
time step continuity errors : sum local = 9.92009e-12, global = -1.01294e-14, cumulative = 2.52513e-11
ExecutionTime = 38.97 s  ClockTime = 40 s

Time = 0.047

Courant Number mean: 0.00213758 max: 0.079328
DILUPBiCG:  Solving for Ux, Initial residual = 0.00143713, Final residual = 1.18601e-07, No Iterations 1
DILUPBiCG:  Solving for Uy, Initial residual = 0.000702376, Final residual = 4.45183e-08, No Iterations 1
DILUPBiCG:  Solving for Uz, Initial residual = 0.00148345, Final residual = 1.29916e-07, No Iterations 1
DICPCG:  Solving for p, Initial residual = 0.00710654, Final residual = 9.83876e-07, No Iterations 166
time step continuity errors : sum local = 1.10051e-11, global = 1.19823e-13, cumulative = 2.53712e-11
DICPCG:  Solving for p, Initial residual = 0.000721219, Final residual = 8.67357e-07, No Iterations 153
time step continuity errors : sum local = 9.65027e-12, global = -4.80027e-14, cumulative = 2.53232e-11
ExecutionTime = 39.73 s  ClockTime = 40 s

Time = 0.048

Courant Number mean: 0.00213731 max: 0.0792592
DILUPBiCG:  Solving for Ux, Initial residual = 0.00142514, Final residual = 1.15882e-07, No Iterations 1
DILUPBiCG:  Solving for Uy, Initial residual = 0.000696494, Final residual = 4.4456e-08, No Iterations 1
DILUPBiCG:  Solving for Uz, Initial residual = 0.00147011, Final residual = 1.2639e-07, No Iterations 1
DICPCG:  Solving for p, Initial residual = 0.00693188, Final residual = 8.4703e-07, No Iterations 167
time step continuity errors : sum local = 9.37233e-12, global = 8.72077e-14, cumulative = 2.54104e-11
DICPCG:  Solving for p, Initial residual = 0.000699931, Final residual = 9.7869e-07, No Iterations 151
time step continuity errors : sum local = 1.07729e-11, global = -1.82211e-14, cumulative = 2.53921e-11
ExecutionTime = 40.49 s  ClockTime = 41 s

Time = 0.049

Courant Number mean: 0.00213704 max: 0.0791933
DILUPBiCG:  Solving for Ux, Initial residual = 0.00141344, Final residual = 1.13295e-07, No Iterations 1
DILUPBiCG:  Solving for Uy, Initial residual = 0.000690755, Final residual = 4.43913e-08, No Iterations 1
DILUPBiCG:  Solving for Uz, Initial residual = 0.00145719, Final residual = 1.23087e-07, No Iterations 1
DICPCG:  Solving for p, Initial residual = 0.00678902, Final residual = 9.6163e-07, No Iterations 167
time step continuity errors : sum local = 1.05285e-11, global = 9.37813e-14, cumulative = 2.54859e-11
DICPCG:  Solving for p, Initial residual = 0.000694825, Final residual = 9.6803e-07, No Iterations 151
time step continuity errors : sum local = 1.05442e-11, global = 7.30714e-15, cumulative = 2.54932e-11
ExecutionTime = 41.22 s  ClockTime = 42 s

Time = 0.05

Courant Number mean: 0.00213677 max: 0.0791302
DILUPBiCG:  Solving for Ux, Initial residual = 0.00140206, Final residual = 1.10876e-07, No Iterations 1
DILUPBiCG:  Solving for Uy, Initial residual = 0.000685142, Final residual = 4.43362e-08, No Iterations 1
DILUPBiCG:  Solving for Uz, Initial residual = 0.00144468, Final residual = 1.20033e-07, No Iterations 1
DICPCG:  Solving for p, Initial residual = 0.00661913, Final residual = 9.80291e-07, No Iterations 88
time step continuity errors : sum local = 1.0622e-11, global = -1.85499e-12, cumulative = 2.36382e-11
DICPCG:  Solving for p, Initial residual = 0.000677629, Final residual = 9.31236e-07, No Iterations 152
time step continuity errors : sum local = 1.00391e-11, global = -6.54925e-14, cumulative = 2.35727e-11
ExecutionTime = 42.28 s  ClockTime = 43 s

Time = 0.051

Courant Number mean: 0.00213651 max: 0.0790697
DILUPBiCG:  Solving for Ux, Initial residual = 0.00139096, Final residual = 1.08548e-07, No Iterations 1
DILUPBiCG:  Solving for Uy, Initial residual = 0.000679646, Final residual = 4.42792e-08, No Iterations 1
DILUPBiCG:  Solving for Uz, Initial residual = 0.00143255, Final residual = 1.17119e-07, No Iterations 1
DICPCG:  Solving for p, Initial residual = 0.00645105, Final residual = 9.31184e-07, No Iterations 88
time step continuity errors : sum local = 9.98817e-12, global = 4.90427e-13, cumulative = 2.40632e-11
DICPCG:  Solving for p, Initial residual = 0.000659249, Final residual = 9.79667e-07, No Iterations 150
time step continuity errors : sum local = 1.04563e-11, global = -2.47152e-14, cumulative = 2.40385e-11
ExecutionTime = 42.85 s  ClockTime = 43 s

Time = 0.052

Courant Number mean: 0.00213624 max: 0.0790117
DILUPBiCG:  Solving for Ux, Initial residual = 0.0013801, Final residual = 1.06319e-07, No Iterations 1
DILUPBiCG:  Solving for Uy, Initial residual = 0.000674284, Final residual = 4.42212e-08, No Iterations 1
DILUPBiCG:  Solving for Uz, Initial residual = 0.00142071, Final residual = 1.1436e-07, No Iterations 1
DICPCG:  Solving for p, Initial residual = 0.00632728, Final residual = 9.51704e-07, No Iterations 166
time step continuity errors : sum local = 1.01077e-11, global = 8.94736e-14, cumulative = 2.41279e-11
DICPCG:  Solving for p, Initial residual = 0.000651256, Final residual = 9.16453e-07, No Iterations 151
time step continuity errors : sum local = 9.68574e-12, global = -2.5322e-14, cumulative = 2.41026e-11
ExecutionTime = 43.59 s  ClockTime = 44 s

Time = 0.053

Courant Number mean: 0.00213598 max: 0.0789563
DILUPBiCG:  Solving for Ux, Initial residual = 0.00136955, Final residual = 1.04198e-07, No Iterations 1
DILUPBiCG:  Solving for Uy, Initial residual = 0.000669037, Final residual = 4.41613e-08, No Iterations 1
DILUPBiCG:  Solving for Uz, Initial residual = 0.00140922, Final residual = 1.11777e-07, No Iterations 1
DICPCG:  Solving for p, Initial residual = 0.00619152, Final residual = 8.51887e-07, No Iterations 167
time step continuity errors : sum local = 8.96015e-12, global = 6.94367e-14, cumulative = 2.4172e-11
DICPCG:  Solving for p, Initial residual = 0.000638536, Final residual = 9.31036e-07, No Iterations 151
time step continuity errors : sum local = 9.74551e-12, global = -3.56362e-14, cumulative = 2.41364e-11
ExecutionTime = 44.34 s  ClockTime = 45 s

Time = 0.054

Courant Number mean: 0.00213571 max: 0.0789033
DILUPBiCG:  Solving for Ux, Initial residual = 0.00135917, Final residual = 1.02174e-07, No Iterations 1
DILUPBiCG:  Solving for Uy, Initial residual = 0.000663913, Final residual = 4.41141e-08, No Iterations 1
DILUPBiCG:  Solving for Uz, Initial residual = 0.00139801, Final residual = 1.09328e-07, No Iterations 1
DICPCG:  Solving for p, Initial residual = 0.00609105, Final residual = 9.42966e-07, No Iterations 167
time step continuity errors : sum local = 9.82399e-12, global = 7.70355e-14, cumulative = 2.42134e-11
DICPCG:  Solving for p, Initial residual = 0.000651149, Final residual = 9.80135e-07, No Iterations 152
time step continuity errors : sum local = 1.01624e-11, global = 1.30056e-14, cumulative = 2.42265e-11
ExecutionTime = 45.09 s  ClockTime = 46 s

Time = 0.055

Courant Number mean: 0.00213545 max: 0.0788525
DILUPBiCG:  Solving for Ux, Initial residual = 0.00134893, Final residual = 1.00217e-07, No Iterations 1
DILUPBiCG:  Solving for Uy, Initial residual = 0.000658861, Final residual = 4.40945e-08, No Iterations 1
DILUPBiCG:  Solving for Uz, Initial residual = 0.00138693, Final residual = 1.06944e-07, No Iterations 1
DICPCG:  Solving for p, Initial residual = 0.00596684, Final residual = 8.73124e-07, No Iterations 166
time step continuity errors : sum local = 9.01151e-12, global = 5.71045e-14, cumulative = 2.42836e-11
DICPCG:  Solving for p, Initial residual = 0.000629107, Final residual = 9.26157e-07, No Iterations 145
time step continuity errors : sum local = 9.51413e-12, global = 1.00949e-13, cumulative = 2.43845e-11
ExecutionTime = 45.85 s  ClockTime = 46 s

Time = 0.056

Courant Number mean: 0.0021352 max: 0.078804
DILUPBiCG:  Solving for Ux, Initial residual = 0.00133898, Final residual = 9.83748e-08, No Iterations 1
DILUPBiCG:  Solving for Uy, Initial residual = 0.00065391, Final residual = 4.40443e-08, No Iterations 1
DILUPBiCG:  Solving for Uz, Initial residual = 0.00137631, Final residual = 1.0475e-07, No Iterations 1
DICPCG:  Solving for p, Initial residual = 0.00580629, Final residual = 8.53303e-07, No Iterations 166
time step continuity errors : sum local = 8.72681e-12, global = 6.33726e-14, cumulative = 2.44479e-11
DICPCG:  Solving for p, Initial residual = 0.000607685, Final residual = 9.29003e-07, No Iterations 149
time step continuity errors : sum local = 9.45711e-12, global = -1.34847e-14, cumulative = 2.44344e-11
ExecutionTime = 46.58 s  ClockTime = 47 s

Time = 0.057

Courant Number mean: 0.00213494 max: 0.0787577
DILUPBiCG:  Solving for Ux, Initial residual = 0.00132923, Final residual = 9.65739e-08, No Iterations 1
DILUPBiCG:  Solving for Uy, Initial residual = 0.000649057, Final residual = 4.40184e-08, No Iterations 1
DILUPBiCG:  Solving for Uz, Initial residual = 0.00136584, Final residual = 1.02599e-07, No Iterations 1
DICPCG:  Solving for p, Initial residual = 0.00569236, Final residual = 9.90922e-07, No Iterations 166
time step continuity errors : sum local = 1.00437e-11, global = 7.70209e-14, cumulative = 2.45114e-11
DICPCG:  Solving for p, Initial residual = 0.000600301, Final residual = 9.6527e-07, No Iterations 150
time step continuity errors : sum local = 9.73903e-12, global = 2.50135e-14, cumulative = 2.45364e-11
ExecutionTime = 47.33 s  ClockTime = 48 s

Time = 0.058

Courant Number mean: 0.00213468 max: 0.0787134
DILUPBiCG:  Solving for Ux, Initial residual = 0.00131965, Final residual = 9.48461e-08, No Iterations 1
DILUPBiCG:  Solving for Uy, Initial residual = 0.00064427, Final residual = 4.4007e-08, No Iterations 1
DILUPBiCG:  Solving for Uz, Initial residual = 0.00135563, Final residual = 1.00566e-07, No Iterations 1
DICPCG:  Solving for p, Initial residual = 0.00559324, Final residual = 9.253e-07, No Iterations 153
time step continuity errors : sum local = 9.29595e-12, global = 3.7574e-15, cumulative = 2.45402e-11
DICPCG:  Solving for p, Initial residual = 0.000595069, Final residual = 9.87685e-07, No Iterations 146
time step continuity errors : sum local = 9.87782e-12, global = 3.46969e-14, cumulative = 2.45749e-11
ExecutionTime = 48.05 s  ClockTime = 49 s

Time = 0.059

Courant Number mean: 0.00213443 max: 0.078671
DILUPBiCG:  Solving for Ux, Initial residual = 0.00131028, Final residual = 9.31755e-08, No Iterations 1
DILUPBiCG:  Solving for Uy, Initial residual = 0.000639563, Final residual = 4.39944e-08, No Iterations 1
DILUPBiCG:  Solving for Uz, Initial residual = 0.0013456, Final residual = 9.86235e-08, No Iterations 1
DICPCG:  Solving for p, Initial residual = 0.00548135, Final residual = 9.0634e-07, No Iterations 165
time step continuity errors : sum local = 9.02663e-12, global = 8.02889e-14, cumulative = 2.46552e-11
DICPCG:  Solving for p, Initial residual = 0.000582527, Final residual = 9.86893e-07, No Iterations 148
time step continuity errors : sum local = 9.785e-12, global = 1.8426e-14, cumulative = 2.46736e-11
ExecutionTime = 48.79 s  ClockTime = 49 s

Time = 0.06

Courant Number mean: 0.00213417 max: 0.0786305
DILUPBiCG:  Solving for Ux, Initial residual = 0.00130108, Final residual = 9.15732e-08, No Iterations 1
DILUPBiCG:  Solving for Uy, Initial residual = 0.000634916, Final residual = 4.39777e-08, No Iterations 1
DILUPBiCG:  Solving for Uz, Initial residual = 0.00133582, Final residual = 9.67671e-08, No Iterations 1
DICPCG:  Solving for p, Initial residual = 0.00540494, Final residual = 8.79326e-07, No Iterations 166
time step continuity errors : sum local = 8.68307e-12, global = 9.22376e-14, cumulative = 2.47658e-11
DICPCG:  Solving for p, Initial residual = 0.000580988, Final residual = 9.84905e-07, No Iterations 149
time step continuity errors : sum local = 9.68275e-12, global = 1.14455e-14, cumulative = 2.47773e-11
ExecutionTime = 50 s  ClockTime = 51 s

Time = 0.061

Courant Number mean: 0.00213392 max: 0.0785919
DILUPBiCG:  Solving for Ux, Initial residual = 0.00129207, Final residual = 9.00525e-08, No Iterations 1
DILUPBiCG:  Solving for Uy, Initial residual = 0.000630343, Final residual = 4.39658e-08, No Iterations 1
DILUPBiCG:  Solving for Uz, Initial residual = 0.00132624, Final residual = 9.4969e-08, No Iterations 1
DICPCG:  Solving for p, Initial residual = 0.00531721, Final residual = 9.86118e-07, No Iterations 166
time step continuity errors : sum local = 9.6561e-12, global = 9.44562e-14, cumulative = 2.48717e-11
DICPCG:  Solving for p, Initial residual = 0.000582055, Final residual = 9.7945e-07, No Iterations 140
time step continuity errors : sum local = 9.54907e-12, global = 1.34503e-13, cumulative = 2.50062e-11
ExecutionTime = 50.73 s  ClockTime = 51 s

Time = 0.062

Courant Number mean: 0.00213366 max: 0.078555
DILUPBiCG:  Solving for Ux, Initial residual = 0.00128316, Final residual = 8.85674e-08, No Iterations 1
DILUPBiCG:  Solving for Uy, Initial residual = 0.000625884, Final residual = 4.39582e-08, No Iterations 1
DILUPBiCG:  Solving for Uz, Initial residual = 0.00131683, Final residual = 9.32504e-08, No Iterations 1
DICPCG:  Solving for p, Initial residual = 0.00522052, Final residual = 9.8218e-07, No Iterations 155
time step continuity errors : sum local = 9.5387e-12, global = -7.0743e-14, cumulative = 2.49355e-11
DICPCG:  Solving for p, Initial residual = 0.000572956, Final residual = 9.94151e-07, No Iterations 146
time step continuity errors : sum local = 9.61366e-12, global = -2.098e-14, cumulative = 2.49145e-11
ExecutionTime = 51.44 s  ClockTime = 52 s

Time = 0.063

Courant Number mean: 0.00213341 max: 0.0785196
DILUPBiCG:  Solving for Ux, Initial residual = 0.00127434, Final residual = 8.71201e-08, No Iterations 1
DILUPBiCG:  Solving for Uy, Initial residual = 0.000621492, Final residual = 4.39557e-08, No Iterations 1
DILUPBiCG:  Solving for Uz, Initial residual = 0.00130756, Final residual = 9.15725e-08, No Iterations 1
DICPCG:  Solving for p, Initial residual = 0.00513677, Final residual = 9.68457e-07, No Iterations 166
time step continuity errors : sum local = 9.32971e-12, global = 6.62607e-14, cumulative = 2.49808e-11
DICPCG:  Solving for p, Initial residual = 0.000569505, Final residual = 9.19614e-07, No Iterations 135
time step continuity errors : sum local = 8.82155e-12, global = 1.58027e-13, cumulative = 2.51388e-11
ExecutionTime = 52.17 s  ClockTime = 53 s

Time = 0.064

Courant Number mean: 0.00213316 max: 0.0784859
DILUPBiCG:  Solving for Ux, Initial residual = 0.00126568, Final residual = 8.57357e-08, No Iterations 1
DILUPBiCG:  Solving for Uy, Initial residual = 0.000617165, Final residual = 4.39542e-08, No Iterations 1
DILUPBiCG:  Solving for Uz, Initial residual = 0.00129852, Final residual = 8.99786e-08, No Iterations 1
DICPCG:  Solving for p, Initial residual = 0.00502946, Final residual = 9.25889e-07, No Iterations 166
time step continuity errors : sum local = 8.84882e-12, global = 8.01189e-14, cumulative = 2.52189e-11
DICPCG:  Solving for p, Initial residual = 0.00054922, Final residual = 9.51102e-07, No Iterations 135
time step continuity errors : sum local = 9.05163e-12, global = 1.71932e-13, cumulative = 2.53909e-11
ExecutionTime = 52.89 s  ClockTime = 53 s

Time = 0.065

Courant Number mean: 0.00213292 max: 0.0784536
DILUPBiCG:  Solving for Ux, Initial residual = 0.00125715, Final residual = 8.43863e-08, No Iterations 1
DILUPBiCG:  Solving for Uy, Initial residual = 0.000612881, Final residual = 4.39685e-08, No Iterations 1
DILUPBiCG:  Solving for Uz, Initial residual = 0.00128973, Final residual = 8.84432e-08, No Iterations 1
DICPCG:  Solving for p, Initial residual = 0.00495013, Final residual = 9.71486e-07, No Iterations 166
time step continuity errors : sum local = 9.21226e-12, global = 7.91465e-14, cumulative = 2.547e-11
DICPCG:  Solving for p, Initial residual = 0.000547132, Final residual = 9.91636e-07, No Iterations 68
time step continuity errors : sum local = 9.36441e-12, global = 2.28832e-12, cumulative = 2.77583e-11
ExecutionTime = 53.51 s  ClockTime = 54 s

Time = 0.066

Courant Number mean: 0.00213267 max: 0.0784228
DILUPBiCG:  Solving for Ux, Initial residual = 0.00124879, Final residual = 8.3096e-08, No Iterations 1
DILUPBiCG:  Solving for Uy, Initial residual = 0.000608679, Final residual = 4.3972e-08, No Iterations 1
DILUPBiCG:  Solving for Uz, Initial residual = 0.00128104, Final residual = 8.69407e-08, No Iterations 1
DICPCG:  Solving for p, Initial residual = 0.00486121, Final residual = 8.67638e-07, No Iterations 167
time step continuity errors : sum local = 8.16492e-12, global = 7.15135e-14, cumulative = 2.78298e-11
DICPCG:  Solving for p, Initial residual = 0.000540789, Final residual = 9.854e-07, No Iterations 57
time step continuity errors : sum local = 9.23384e-12, global = 1.65232e-12, cumulative = 2.94822e-11
ExecutionTime = 54.1 s  ClockTime = 55 s

Time = 0.067

Courant Number mean: 0.00213242 max: 0.0783934
DILUPBiCG:  Solving for Ux, Initial residual = 0.00124052, Final residual = 8.18433e-08, No Iterations 1
DILUPBiCG:  Solving for Uy, Initial residual = 0.000604519, Final residual = 4.39965e-08, No Iterations 1
DILUPBiCG:  Solving for Uz, Initial residual = 0.00127258, Final residual = 8.54733e-08, No Iterations 1
DICPCG:  Solving for p, Initial residual = 0.00479806, Final residual = 9.87642e-07, No Iterations 166
time step continuity errors : sum local = 9.22313e-12, global = 8.47184e-14, cumulative = 2.95669e-11
DICPCG:  Solving for p, Initial residual = 0.000539059, Final residual = 8.9612e-07, No Iterations 57
time step continuity errors : sum local = 8.33393e-12, global = 1.87083e-12, cumulative = 3.14377e-11
ExecutionTime = 54.67 s  ClockTime = 55 s

Time = 0.068

Courant Number mean: 0.00213218 max: 0.0783652
DILUPBiCG:  Solving for Ux, Initial residual = 0.00123238, Final residual = 8.06092e-08, No Iterations 1
DILUPBiCG:  Solving for Uy, Initial residual = 0.000600441, Final residual = 4.40118e-08, No Iterations 1
DILUPBiCG:  Solving for Uz, Initial residual = 0.00126421, Final residual = 8.40606e-08, No Iterations 1
DICPCG:  Solving for p, Initial residual = 0.00472237, Final residual = 9.65488e-07, No Iterations 166
time step continuity errors : sum local = 8.94896e-12, global = 7.93178e-14, cumulative = 3.1517e-11
DICPCG:  Solving for p, Initial residual = 0.000531549, Final residual = 9.67927e-07, No Iterations 56
time step continuity errors : sum local = 8.93493e-12, global = 1.55116e-12, cumulative = 3.30682e-11
ExecutionTime = 55.24 s  ClockTime = 56 s

Time = 0.069

Courant Number mean: 0.00213193 max: 0.0783384
DILUPBiCG:  Solving for Ux, Initial residual = 0.00122442, Final residual = 7.94264e-08, No Iterations 1
DILUPBiCG:  Solving for Uy, Initial residual = 0.000596416, Final residual = 4.40369e-08, No Iterations 1
DILUPBiCG:  Solving for Uz, Initial residual = 0.00125598, Final residual = 8.27143e-08, No Iterations 1
DICPCG:  Solving for p, Initial residual = 0.00464967, Final residual = 9.64959e-07, No Iterations 166
time step continuity errors : sum local = 8.8782e-12, global = 7.87365e-14, cumulative = 3.31469e-11
DICPCG:  Solving for p, Initial residual = 0.000526608, Final residual = 9.43354e-07, No Iterations 57
time step continuity errors : sum local = 8.6444e-12, global = 1.63929e-12, cumulative = 3.47862e-11
ExecutionTime = 55.81 s  ClockTime = 56 s

Time = 0.07

Courant Number mean: 0.00213169 max: 0.0783128
DILUPBiCG:  Solving for Ux, Initial residual = 0.00121655, Final residual = 7.82871e-08, No Iterations 1
DILUPBiCG:  Solving for Uy, Initial residual = 0.000592452, Final residual = 4.4066e-08, No Iterations 1
DILUPBiCG:  Solving for Uz, Initial residual = 0.00124789, Final residual = 8.14044e-08, No Iterations 1
DICPCG:  Solving for p, Initial residual = 0.0045685, Final residual = 9.46535e-07, No Iterations 166
time step continuity errors : sum local = 8.6455e-12, global = 7.38687e-14, cumulative = 3.48601e-11
DICPCG:  Solving for p, Initial residual = 0.000518315, Final residual = 9.7442e-07, No Iterations 58
time step continuity errors : sum local = 8.8645e-12, global = 1.29732e-12, cumulative = 3.61574e-11
ExecutionTime = 56.82 s  ClockTime = 57 s

Time = 0.071

Courant Number mean: 0.00213144 max: 0.0782884
DILUPBiCG:  Solving for Ux, Initial residual = 0.00120876, Final residual = 7.71803e-08, No Iterations 1
DILUPBiCG:  Solving for Uy, Initial residual = 0.000588543, Final residual = 4.41204e-08, No Iterations 1
DILUPBiCG:  Solving for Uz, Initial residual = 0.00123995, Final residual = 8.0156e-08, No Iterations 1
DICPCG:  Solving for p, Initial residual = 0.0044973, Final residual = 9.82203e-07, No Iterations 166
time step continuity errors : sum local = 8.907e-12, global = 7.73445e-14, cumulative = 3.62347e-11
DICPCG:  Solving for p, Initial residual = 0.000511872, Final residual = 8.99859e-07, No Iterations 57
time step continuity errors : sum local = 8.12804e-12, global = 1.09345e-12, cumulative = 3.73282e-11
ExecutionTime = 57.4 s  ClockTime = 58 s

Time = 0.072

Courant Number mean: 0.0021312 max: 0.0782653
DILUPBiCG:  Solving for Ux, Initial residual = 0.00120107, Final residual = 7.61046e-08, No Iterations 1
DILUPBiCG:  Solving for Uy, Initial residual = 0.000584681, Final residual = 4.41654e-08, No Iterations 1
DILUPBiCG:  Solving for Uz, Initial residual = 0.00123211, Final residual = 7.89318e-08, No Iterations 1
DICPCG:  Solving for p, Initial residual = 0.00444075, Final residual = 9.83705e-07, No Iterations 166
time step continuity errors : sum local = 8.85775e-12, global = 7.84301e-14, cumulative = 3.74066e-11
DICPCG:  Solving for p, Initial residual = 0.000510747, Final residual = 8.86474e-07, No Iterations 57
time step continuity errors : sum local = 7.95101e-12, global = 1.04668e-12, cumulative = 3.84533e-11
ExecutionTime = 58 s  ClockTime = 59 s

Time = 0.073

Courant Number mean: 0.00213096 max: 0.0782432
DILUPBiCG:  Solving for Ux, Initial residual = 0.0011935, Final residual = 7.50592e-08, No Iterations 1
DILUPBiCG:  Solving for Uy, Initial residual = 0.000580862, Final residual = 4.42214e-08, No Iterations 1
DILUPBiCG:  Solving for Uz, Initial residual = 0.00122441, Final residual = 7.775e-08, No Iterations 1
DICPCG:  Solving for p, Initial residual = 0.00438728, Final residual = 9.89027e-07, No Iterations 166
time step continuity errors : sum local = 8.84381e-12, global = 7.90085e-14, cumulative = 3.85323e-11
DICPCG:  Solving for p, Initial residual = 0.000507779, Final residual = 9.15677e-07, No Iterations 56
time step continuity errors : sum local = 8.15621e-12, global = 8.55507e-13, cumulative = 3.93878e-11
ExecutionTime = 58.58 s  ClockTime = 59 s

Time = 0.074

Courant Number mean: 0.00213072 max: 0.0782223
DILUPBiCG:  Solving for Ux, Initial residual = 0.00118602, Final residual = 7.4049e-08, No Iterations 1
DILUPBiCG:  Solving for Uy, Initial residual = 0.000577095, Final residual = 4.42838e-08, No Iterations 1
DILUPBiCG:  Solving for Uz, Initial residual = 0.00121685, Final residual = 7.661e-08, No Iterations 1
DICPCG:  Solving for p, Initial residual = 0.00431507, Final residual = 9.03789e-07, No Iterations 167
time step continuity errors : sum local = 8.02621e-12, global = 6.1718e-14, cumulative = 3.94495e-11
DICPCG:  Solving for p, Initial residual = 0.000501214, Final residual = 9.31251e-07, No Iterations 56
time step continuity errors : sum local = 8.23833e-12, global = 9.22659e-13, cumulative = 4.03722e-11
ExecutionTime = 59.14 s  ClockTime = 60 s

Time = 0.075

Courant Number mean: 0.00213048 max: 0.0782024
DILUPBiCG:  Solving for Ux, Initial residual = 0.00117862, Final residual = 7.30613e-08, No Iterations 1
DILUPBiCG:  Solving for Uy, Initial residual = 0.000573375, Final residual = 4.4336e-08, No Iterations 1
DILUPBiCG:  Solving for Uz, Initial residual = 0.00120937, Final residual = 7.5474e-08, No Iterations 1
DICPCG:  Solving for p, Initial residual = 0.00428084, Final residual = 8.93889e-07, No Iterations 167
time step continuity errors : sum local = 7.8843e-12, global = 5.9582e-14, cumulative = 4.04318e-11
DICPCG:  Solving for p, Initial residual = 0.000504788, Final residual = 8.92177e-07, No Iterations 56
time step continuity errors : sum local = 7.83903e-12, global = 8.57963e-13, cumulative = 4.12897e-11
ExecutionTime = 59.74 s  ClockTime = 60 s

Time = 0.076

Courant Number mean: 0.00213024 max: 0.0781835
DILUPBiCG:  Solving for Ux, Initial residual = 0.00117132, Final residual = 7.20801e-08, No Iterations 1
DILUPBiCG:  Solving for Uy, Initial residual = 0.000569712, Final residual = 4.44005e-08, No Iterations 1
DILUPBiCG:  Solving for Uz, Initial residual = 0.00120199, Final residual = 7.43644e-08, No Iterations 1
DICPCG:  Solving for p, Initial residual = 0.00425565, Final residual = 8.72173e-07, No Iterations 167
time step continuity errors : sum local = 7.64062e-12, global = 5.67366e-14, cumulative = 4.13465e-11
DICPCG:  Solving for p, Initial residual = 0.000513544, Final residual = 9.92474e-07, No Iterations 34
time step continuity errors : sum local = 8.66122e-12, global = 5.22236e-13, cumulative = 4.18687e-11
ExecutionTime = 60.27 s  ClockTime = 61 s

Time = 0.077

Courant Number mean: 0.00213 max: 0.0781656
DILUPBiCG:  Solving for Ux, Initial residual = 0.0011642, Final residual = 7.11363e-08, No Iterations 1
DILUPBiCG:  Solving for Uy, Initial residual = 0.000566066, Final residual = 4.44604e-08, No Iterations 1
DILUPBiCG:  Solving for Uz, Initial residual = 0.00119476, Final residual = 7.3298e-08, No Iterations 1
DICPCG:  Solving for p, Initial residual = 0.00419797, Final residual = 9.35801e-07, No Iterations 167
time step continuity errors : sum local = 8.14312e-12, global = 7.33584e-14, cumulative = 4.19421e-11
DICPCG:  Solving for p, Initial residual = 0.000504497, Final residual = 9.75958e-07, No Iterations 37
time step continuity errors : sum local = 8.4604e-12, global = 3.22438e-13, cumulative = 4.22645e-11
ExecutionTime = 60.8 s  ClockTime = 61 s

Time = 0.078

Courant Number mean: 0.00212977 max: 0.0781487
DILUPBiCG:  Solving for Ux, Initial residual = 0.00115711, Final residual = 7.02352e-08, No Iterations 1
DILUPBiCG:  Solving for Uy, Initial residual = 0.000562481, Final residual = 4.45231e-08, No Iterations 1
DILUPBiCG:  Solving for Uz, Initial residual = 0.00118762, Final residual = 7.22494e-08, No Iterations 1
DICPCG:  Solving for p, Initial residual = 0.00413909, Final residual = 9.0025e-07, No Iterations 166
time step continuity errors : sum local = 7.78185e-12, global = 5.08116e-14, cumulative = 4.23153e-11
DICPCG:  Solving for p, Initial residual = 0.000505391, Final residual = 9.546e-07, No Iterations 32
time step continuity errors : sum local = 8.2207e-12, global = 3.40292e-13, cumulative = 4.26556e-11
ExecutionTime = 61.34 s  ClockTime = 62 s

Time = 0.079

Courant Number mean: 0.00212953 max: 0.0781327
DILUPBiCG:  Solving for Ux, Initial residual = 0.0011501, Final residual = 6.93507e-08, No Iterations 1
DILUPBiCG:  Solving for Uy, Initial residual = 0.000558917, Final residual = 4.45843e-08, No Iterations 1
DILUPBiCG:  Solving for Uz, Initial residual = 0.00118049, Final residual = 7.12448e-08, No Iterations 1
DICPCG:  Solving for p, Initial residual = 0.00408047, Final residual = 9.58333e-07, No Iterations 166
time step continuity errors : sum local = 8.2299e-12, global = 5.34457e-14, cumulative = 4.27091e-11
DICPCG:  Solving for p, Initial residual = 0.000500918, Final residual = 9.54249e-07, No Iterations 31
time step continuity errors : sum local = 8.16443e-12, global = 2.48857e-13, cumulative = 4.29579e-11
ExecutionTime = 61.87 s  ClockTime = 62 s

Time = 0.08

Courant Number mean: 0.0021293 max: 0.0781176
DILUPBiCG:  Solving for Ux, Initial residual = 0.00114309, Final residual = 6.84804e-08, No Iterations 1
DILUPBiCG:  Solving for Uy, Initial residual = 0.000555422, Final residual = 4.46677e-08, No Iterations 1
DILUPBiCG:  Solving for Uz, Initial residual = 0.00117337, Final residual = 7.02734e-08, No Iterations 1
DICPCG:  Solving for p, Initial residual = 0.00401973, Final residual = 9.90174e-07, No Iterations 166
time step continuity errors : sum local = 8.44856e-12, global = 6.37953e-14, cumulative = 4.30217e-11
DICPCG:  Solving for p, Initial residual = 0.000483075, Final residual = 9.41837e-07, No Iterations 31
time step continuity errors : sum local = 8.00655e-12, global = 4.10702e-13, cumulative = 4.34324e-11
ExecutionTime = 62.85 s  ClockTime = 63 s

Time = 0.081

Courant Number mean: 0.00212906 max: 0.0781033
DILUPBiCG:  Solving for Ux, Initial residual = 0.00113623, Final residual = 6.76387e-08, No Iterations 1
DILUPBiCG:  Solving for Uy, Initial residual = 0.000551953, Final residual = 4.4749e-08, No Iterations 1
DILUPBiCG:  Solving for Uz, Initial residual = 0.00116637, Final residual = 6.92969e-08, No Iterations 1
DICPCG:  Solving for p, Initial residual = 0.00397018, Final residual = 9.78594e-07, No Iterations 166
time step continuity errors : sum local = 8.29648e-12, global = 6.11768e-14, cumulative = 4.34936e-11
DICPCG:  Solving for p, Initial residual = 0.000480292, Final residual = 9.29302e-07, No Iterations 31
time step continuity errors : sum local = 7.84956e-12, global = 3.44257e-13, cumulative = 4.38379e-11
ExecutionTime = 63.37 s  ClockTime = 64 s

Time = 0.082

Courant Number mean: 0.00212883 max: 0.0780898
DILUPBiCG:  Solving for Ux, Initial residual = 0.00112945, Final residual = 6.68254e-08, No Iterations 1
DILUPBiCG:  Solving for Uy, Initial residual = 0.000548513, Final residual = 4.48359e-08, No Iterations 1
DILUPBiCG:  Solving for Uz, Initial residual = 0.00115949, Final residual = 6.83605e-08, No Iterations 1
DICPCG:  Solving for p, Initial residual = 0.00395671, Final residual = 9.73162e-07, No Iterations 166
time step continuity errors : sum local = 8.19786e-12, global = 5.92483e-14, cumulative = 4.38971e-11
DICPCG:  Solving for p, Initial residual = 0.000484728, Final residual = 9.03589e-07, No Iterations 31
time step continuity errors : sum local = 7.58381e-12, global = 4.30807e-13, cumulative = 4.43279e-11
ExecutionTime = 63.91 s  ClockTime = 65 s

Time = 0.083

Courant Number mean: 0.0021286 max: 0.0780771
DILUPBiCG:  Solving for Ux, Initial residual = 0.00112276, Final residual = 6.60273e-08, No Iterations 1
DILUPBiCG:  Solving for Uy, Initial residual = 0.000545126, Final residual = 4.49324e-08, No Iterations 1
DILUPBiCG:  Solving for Uz, Initial residual = 0.00115273, Final residual = 6.74437e-08, No Iterations 1
DICPCG:  Solving for p, Initial residual = 0.0038913, Final residual = 9.4714e-07, No Iterations 166
time step continuity errors : sum local = 7.92826e-12, global = 6.21736e-14, cumulative = 4.43901e-11
DICPCG:  Solving for p, Initial residual = 0.000477229, Final residual = 9.85147e-07, No Iterations 30
time step continuity errors : sum local = 8.2163e-12, global = 2.89283e-13, cumulative = 4.46794e-11
ExecutionTime = 64.46 s  ClockTime = 65 s

Time = 0.084

Courant Number mean: 0.00212837 max: 0.078065
DILUPBiCG:  Solving for Ux, Initial residual = 0.00111611, Final residual = 6.52526e-08, No Iterations 1
DILUPBiCG:  Solving for Uy, Initial residual = 0.000541772, Final residual = 4.50317e-08, No Iterations 1
DILUPBiCG:  Solving for Uz, Initial residual = 0.00114609, Final residual = 6.6538e-08, No Iterations 1
DICPCG:  Solving for p, Initial residual = 0.00388771, Final residual = 9.947e-07, No Iterations 166
time step continuity errors : sum local = 8.2742e-12, global = 3.60662e-14, cumulative = 4.47154e-11
DICPCG:  Solving for p, Initial residual = 0.000500434, Final residual = 9.78028e-07, No Iterations 31
time step continuity errors : sum local = 8.10612e-12, global = -7.43903e-14, cumulative = 4.4641e-11
ExecutionTime = 64.98 s  ClockTime = 66 s

Time = 0.085

Courant Number mean: 0.00212814 max: 0.0780534
DILUPBiCG:  Solving for Ux, Initial residual = 0.0011095, Final residual = 6.45196e-08, No Iterations 1
DILUPBiCG:  Solving for Uy, Initial residual = 0.000538456, Final residual = 4.51424e-08, No Iterations 1
DILUPBiCG:  Solving for Uz, Initial residual = 0.00113939, Final residual = 6.5641e-08, No Iterations 1
DICPCG:  Solving for p, Initial residual = 0.00384895, Final residual = 9.88554e-07, No Iterations 169
time step continuity errors : sum local = 8.17212e-12, global = 4.41942e-14, cumulative = 4.46852e-11
DICPCG:  Solving for p, Initial residual = 0.000487708, Final residual = 9.4612e-07, No Iterations 33
time step continuity errors : sum local = 7.79335e-12, global = 4.97991e-14, cumulative = 4.4735e-11
ExecutionTime = 65.53 s  ClockTime = 66 s

Time = 0.086

Courant Number mean: 0.00212791 max: 0.0780424
DILUPBiCG:  Solving for Ux, Initial residual = 0.00110314, Final residual = 6.37993e-08, No Iterations 1
DILUPBiCG:  Solving for Uy, Initial residual = 0.000535188, Final residual = 4.5266e-08, No Iterations 1
DILUPBiCG:  Solving for Uz, Initial residual = 0.00113299, Final residual = 6.47411e-08, No Iterations 1
DICPCG:  Solving for p, Initial residual = 0.00377376, Final residual = 9.5164e-07, No Iterations 167
time step continuity errors : sum local = 7.81892e-12, global = 6.4587e-14, cumulative = 4.47996e-11
DICPCG:  Solving for p, Initial residual = 0.000474057, Final residual = 9.59679e-07, No Iterations 32
time step continuity errors : sum local = 7.8567e-12, global = -2.36758e-13, cumulative = 4.45629e-11
ExecutionTime = 66.06 s  ClockTime = 67 s

Time = 0.087

Courant Number mean: 0.00212768 max: 0.0780319
DILUPBiCG:  Solving for Ux, Initial residual = 0.00109677, Final residual = 6.30783e-08, No Iterations 1
DILUPBiCG:  Solving for Uy, Initial residual = 0.000531963, Final residual = 4.53595e-08, No Iterations 1
DILUPBiCG:  Solving for Uz, Initial residual = 0.00112659, Final residual = 6.38898e-08, No Iterations 1
DICPCG:  Solving for p, Initial residual = 0.00377029, Final residual = 9.90486e-07, No Iterations 172
time step continuity errors : sum local = 8.08843e-12, global = 1.24518e-14, cumulative = 4.45753e-11
DICPCG:  Solving for p, Initial residual = 0.000496444, Final residual = 9.33014e-07, No Iterations 39
time step continuity errors : sum local = 7.59224e-12, global = 5.218e-13, cumulative = 4.50971e-11
ExecutionTime = 66.62 s  ClockTime = 67 s

Time = 0.088

Courant Number mean: 0.00212746 max: 0.0780218
DILUPBiCG:  Solving for Ux, Initial residual = 0.00109053, Final residual = 6.23379e-08, No Iterations 1
DILUPBiCG:  Solving for Uy, Initial residual = 0.000528781, Final residual = 4.54899e-08, No Iterations 1
DILUPBiCG:  Solving for Uz, Initial residual = 0.00112022, Final residual = 6.30312e-08, No Iterations 1
DICPCG:  Solving for p, Initial residual = 0.00370784, Final residual = 9.58484e-07, No Iterations 166
time step continuity errors : sum local = 7.78031e-12, global = 5.2894e-14, cumulative = 4.515e-11
DICPCG:  Solving for p, Initial residual = 0.000477014, Final residual = 9.16613e-07, No Iterations 36
time step continuity errors : sum local = 7.41402e-12, global = 1.07013e-13, cumulative = 4.5257e-11
ExecutionTime = 67.18 s  ClockTime = 68 s

Time = 0.089

Courant Number mean: 0.00212723 max: 0.078012
DILUPBiCG:  Solving for Ux, Initial residual = 0.00108431, Final residual = 6.16039e-08, No Iterations 1
DILUPBiCG:  Solving for Uy, Initial residual = 0.000525607, Final residual = 4.56038e-08, No Iterations 1
DILUPBiCG:  Solving for Uz, Initial residual = 0.00111398, Final residual = 6.22447e-08, No Iterations 1
DICPCG:  Solving for p, Initial residual = 0.00372452, Final residual = 9.43505e-07, No Iterations 167
time step continuity errors : sum local = 7.61248e-12, global = 4.07551e-14, cumulative = 4.52978e-11
DICPCG:  Solving for p, Initial residual = 0.000499578, Final residual = 9.55959e-07, No Iterations 48
time step continuity errors : sum local = 7.68566e-12, global = 4.85739e-13, cumulative = 4.57835e-11
ExecutionTime = 67.74 s  ClockTime = 68 s

Time = 0.09

Courant Number mean: 0.00212701 max: 0.0780025
DILUPBiCG:  Solving for Ux, Initial residual = 0.00107812, Final residual = 6.07941e-08, No Iterations 1
DILUPBiCG:  Solving for Uy, Initial residual = 0.00052254, Final residual = 4.57368e-08, No Iterations 1
DILUPBiCG:  Solving for Uz, Initial residual = 0.00110771, Final residual = 6.14383e-08, No Iterations 1
DICPCG:  Solving for p, Initial residual = 0.00363881, Final residual = 9.68621e-07, No Iterations 166
time step continuity errors : sum local = 7.76858e-12, global = 5.55837e-14, cumulative = 4.58391e-11
DICPCG:  Solving for p, Initial residual = 0.000469966, Final residual = 9.64532e-07, No Iterations 36
time step continuity errors : sum local = 7.70859e-12, global = -1.47594e-13, cumulative = 4.56915e-11
ExecutionTime = 68.71 s  ClockTime = 69 s

Time = 0.091

Courant Number mean: 0.00212678 max: 0.0779933
DILUPBiCG:  Solving for Ux, Initial residual = 0.00107207, Final residual = 6.01078e-08, No Iterations 1
DILUPBiCG:  Solving for Uy, Initial residual = 0.000519446, Final residual = 4.58979e-08, No Iterations 1
DILUPBiCG:  Solving for Uz, Initial residual = 0.00110159, Final residual = 6.06388e-08, No Iterations 1
DICPCG:  Solving for p, Initial residual = 0.00359957, Final residual = 9.82615e-07, No Iterations 166
time step continuity errors : sum local = 7.83443e-12, global = 5.93702e-14, cumulative = 4.57509e-11
DICPCG:  Solving for p, Initial residual = 0.000464121, Final residual = 9.81332e-07, No Iterations 54
time step continuity errors : sum local = 7.79717e-12, global = -2.19168e-13, cumulative = 4.55317e-11
ExecutionTime = 69.29 s  ClockTime = 70 s

Time = 0.092

Courant Number mean: 0.00212656 max: 0.0779842
DILUPBiCG:  Solving for Ux, Initial residual = 0.00106601, Final residual = 5.94369e-08, No Iterations 1
DILUPBiCG:  Solving for Uy, Initial residual = 0.000516403, Final residual = 4.60362e-08, No Iterations 1
DILUPBiCG:  Solving for Uz, Initial residual = 0.00109555, Final residual = 5.986e-08, No Iterations 1
DICPCG:  Solving for p, Initial residual = 0.00354883, Final residual = 9.93652e-07, No Iterations 166
time step continuity errors : sum local = 7.87656e-12, global = 6.33459e-14, cumulative = 4.55951e-11
DICPCG:  Solving for p, Initial residual = 0.000456117, Final residual = 9.91027e-07, No Iterations 35
time step continuity errors : sum local = 7.82884e-12, global = -4.31891e-13, cumulative = 4.51632e-11
ExecutionTime = 69.82 s  ClockTime = 70 s

Time = 0.093

Courant Number mean: 0.00212634 max: 0.0779753
DILUPBiCG:  Solving for Ux, Initial residual = 0.00106008, Final residual = 5.88145e-08, No Iterations 1
DILUPBiCG:  Solving for Uy, Initial residual = 0.000513356, Final residual = 4.61745e-08, No Iterations 1
DILUPBiCG:  Solving for Uz, Initial residual = 0.00108959, Final residual = 5.91163e-08, No Iterations 1
DICPCG:  Solving for p, Initial residual = 0.00354388, Final residual = 8.82108e-07, No Iterations 167
time step continuity errors : sum local = 6.95205e-12, global = 4.51591e-14, cumulative = 4.52083e-11
DICPCG:  Solving for p, Initial residual = 0.000463437, Final residual = 9.86036e-07, No Iterations 38
time step continuity errors : sum local = 7.74435e-12, global = -3.59757e-13, cumulative = 4.48486e-11
ExecutionTime = 70.37 s  ClockTime = 71 s

Time = 0.094

Courant Number mean: 0.00212612 max: 0.0779665
DILUPBiCG:  Solving for Ux, Initial residual = 0.00105415, Final residual = 5.82047e-08, No Iterations 1
DILUPBiCG:  Solving for Uy, Initial residual = 0.000510362, Final residual = 4.62961e-08, No Iterations 1
DILUPBiCG:  Solving for Uz, Initial residual = 0.00108368, Final residual = 5.83816e-08, No Iterations 1
DICPCG:  Solving for p, Initial residual = 0.00350639, Final residual = 8.74468e-07, No Iterations 167
time step continuity errors : sum local = 6.85234e-12, global = 5.00758e-14, cumulative = 4.48986e-11
DICPCG:  Solving for p, Initial residual = 0.000460019, Final residual = 9.89169e-07, No Iterations 50
time step continuity errors : sum local = 7.72481e-12, global = -2.81791e-13, cumulative = 4.46168e-11
ExecutionTime = 70.94 s  ClockTime = 72 s

Time = 0.095

Courant Number mean: 0.0021259 max: 0.0779578
DILUPBiCG:  Solving for Ux, Initial residual = 0.00104829, Final residual = 5.76089e-08, No Iterations 1
DILUPBiCG:  Solving for Uy, Initial residual = 0.000507398, Final residual = 4.64179e-08, No Iterations 1
DILUPBiCG:  Solving for Uz, Initial residual = 0.00107781, Final residual = 5.76671e-08, No Iterations 1
DICPCG:  Solving for p, Initial residual = 0.0034636, Final residual = 9.76275e-07, No Iterations 166
time step continuity errors : sum local = 7.60688e-12, global = 5.67521e-14, cumulative = 4.46736e-11
DICPCG:  Solving for p, Initial residual = 0.0004491, Final residual = 9.92936e-07, No Iterations 51
time step continuity errors : sum local = 7.71054e-12, global = 3.67023e-14, cumulative = 4.47103e-11
ExecutionTime = 71.49 s  ClockTime = 72 s

Time = 0.096

Courant Number mean: 0.00212568 max: 0.0779491
DILUPBiCG:  Solving for Ux, Initial residual = 0.00104253, Final residual = 5.70259e-08, No Iterations 1
DILUPBiCG:  Solving for Uy, Initial residual = 0.00050446, Final residual = 4.65422e-08, No Iterations 1
[...]
time step continuity errors : sum local = 4.43746e-12, global = -6.58512e-15, cumulative = -3.76076e-11
DICPCG:  Solving for p, Initial residual = 0.000277817, Final residual = 9.86486e-07, No Iterations 54
time step continuity errors : sum local = 4.53311e-12, global = -5.28896e-13, cumulative = -3.81365e-11
ExecutionTime = 155.11 s  ClockTime = 156 s

Time = 0.231

Courant Number mean: 0.00210392 max: 0.0772614
DILUPBiCG:  Solving for Ux, Initial residual = 0.000580093, Final residual = 1.91014e-08, No Iterations 1
DILUPBiCG:  Solving for Uy, Initial residual = 0.000277814, Final residual = 1.15987e-07, No Iterations 1
DILUPBiCG:  Solving for Uz, Initial residual = 0.000610781, Final residual = 2.2915e-08, No Iterations 1
DICPCG:  Solving for p, Initial residual = 0.00168065, Final residual = 9.72129e-07, No Iterations 160
time step continuity errors : sum local = 4.46341e-12, global = 6.39037e-15, cumulative = -3.81301e-11
DICPCG:  Solving for p, Initial residual = 0.000269231, Final residual = 9.93028e-07, No Iterations 56
time step continuity errors : sum local = 4.5513e-12, global = -4.99741e-13, cumulative = -3.86299e-11
ExecutionTime = 155.68 s  ClockTime = 157 s

Time = 0.232

Courant Number mean: 0.00210381 max: 0.0772607
DILUPBiCG:  Solving for Ux, Initial residual = 0.000578008, Final residual = 1.89523e-08, No Iterations 1
DILUPBiCG:  Solving for Uy, Initial residual = 0.000276917, Final residual = 1.16573e-07, No Iterations 1
DILUPBiCG:  Solving for Uz, Initial residual = 0.00060862, Final residual = 2.28115e-08, No Iterations 1
DICPCG:  Solving for p, Initial residual = 0.00167678, Final residual = 9.98887e-07, No Iterations 161
time step continuity errors : sum local = 4.5744e-12, global = 1.80088e-14, cumulative = -3.86118e-11
DICPCG:  Solving for p, Initial residual = 0.000275669, Final residual = 9.81316e-07, No Iterations 58
time step continuity errors : sum local = 4.48608e-12, global = -4.49911e-13, cumulative = -3.90618e-11
ExecutionTime = 156.25 s  ClockTime = 157 s

Time = 0.233

Courant Number mean: 0.00210369 max: 0.07726
DILUPBiCG:  Solving for Ux, Initial residual = 0.000575916, Final residual = 1.88136e-08, No Iterations 1
DILUPBiCG:  Solving for Uy, Initial residual = 0.000276021, Final residual = 1.16351e-07, No Iterations 1
DILUPBiCG:  Solving for Uz, Initial residual = 0.000606484, Final residual = 2.27108e-08, No Iterations 1
DICPCG:  Solving for p, Initial residual = 0.0016662, Final residual = 9.40799e-07, No Iterations 162
time step continuity errors : sum local = 4.29738e-12, global = 6.25855e-15, cumulative = -3.90555e-11
DICPCG:  Solving for p, Initial residual = 0.000270191, Final residual = 9.47436e-07, No Iterations 57
time step continuity errors : sum local = 4.32016e-12, global = -4.98426e-13, cumulative = -3.95539e-11
ExecutionTime = 156.81 s  ClockTime = 158 s

Time = 0.234

Courant Number mean: 0.00210357 max: 0.0772594
DILUPBiCG:  Solving for Ux, Initial residual = 0.000573855, Final residual = 1.86764e-08, No Iterations 1
DILUPBiCG:  Solving for Uy, Initial residual = 0.000275135, Final residual = 1.16386e-07, No Iterations 1
DILUPBiCG:  Solving for Uz, Initial residual = 0.00060434, Final residual = 2.26028e-08, No Iterations 1
DICPCG:  Solving for p, Initial residual = 0.00166178, Final residual = 9.56399e-07, No Iterations 162
time step continuity errors : sum local = 4.35748e-12, global = -2.87947e-15, cumulative = -3.95568e-11
DICPCG:  Solving for p, Initial residual = 0.000274343, Final residual = 9.94201e-07, No Iterations 52
time step continuity errors : sum local = 4.52188e-12, global = -5.43769e-13, cumulative = -4.01006e-11
ExecutionTime = 157.36 s  ClockTime = 158 s

Time = 0.235

Courant Number mean: 0.00210346 max: 0.0772587
DILUPBiCG:  Solving for Ux, Initial residual = 0.000571804, Final residual = 1.85388e-08, No Iterations 1
DILUPBiCG:  Solving for Uy, Initial residual = 0.000274246, Final residual = 1.16024e-07, No Iterations 1
DILUPBiCG:  Solving for Uz, Initial residual = 0.000602224, Final residual = 2.25021e-08, No Iterations 1
DICPCG:  Solving for p, Initial residual = 0.00166851, Final residual = 9.52462e-07, No Iterations 162
time step continuity errors : sum local = 4.32866e-12, global = 2.11764e-15, cumulative = -4.00985e-11
DICPCG:  Solving for p, Initial residual = 0.000277406, Final residual = 9.83767e-07, No Iterations 52
time step continuity errors : sum local = 4.46335e-12, global = -5.39442e-13, cumulative = -4.06379e-11
ExecutionTime = 157.91 s  ClockTime = 159 s

Time = 0.236

Courant Number mean: 0.00210335 max: 0.0772581
DILUPBiCG:  Solving for Ux, Initial residual = 0.000569773, Final residual = 1.8401e-08, No Iterations 1
DILUPBiCG:  Solving for Uy, Initial residual = 0.00027338, Final residual = 1.15934e-07, No Iterations 1
DILUPBiCG:  Solving for Uz, Initial residual = 0.000600133, Final residual = 2.23994e-08, No Iterations 1
DICPCG:  Solving for p, Initial residual = 0.00167559, Final residual = 8.90937e-07, No Iterations 163
time step continuity errors : sum local = 4.03906e-12, global = -8.65748e-15, cumulative = -4.06466e-11
DICPCG:  Solving for p, Initial residual = 0.000292243, Final residual = 9.7027e-07, No Iterations 49
time step continuity errors : sum local = 4.39132e-12, global = -5.30426e-13, cumulative = -4.1177e-11
ExecutionTime = 158.46 s  ClockTime = 159 s

Time = 0.237

Courant Number mean: 0.00210323 max: 0.0772575
DILUPBiCG:  Solving for Ux, Initial residual = 0.000567749, Final residual = 1.82654e-08, No Iterations 1
DILUPBiCG:  Solving for Uy, Initial residual = 0.000272525, Final residual = 1.16575e-07, No Iterations 1
DILUPBiCG:  Solving for Uz, Initial residual = 0.000598044, Final residual = 2.22918e-08, No Iterations 1
DICPCG:  Solving for p, Initial residual = 0.00165681, Final residual = 8.98839e-07, No Iterations 161
time step continuity errors : sum local = 4.06482e-12, global = 1.6222e-14, cumulative = -4.11608e-11
DICPCG:  Solving for p, Initial residual = 0.000283435, Final residual = 9.65957e-07, No Iterations 47
time step continuity errors : sum local = 4.36097e-12, global = -5.45662e-13, cumulative = -4.17064e-11
ExecutionTime = 159 s  ClockTime = 160 s

Time = 0.238

Courant Number mean: 0.00210312 max: 0.0772569
DILUPBiCG:  Solving for Ux, Initial residual = 0.000565728, Final residual = 1.81285e-08, No Iterations 1
DILUPBiCG:  Solving for Uy, Initial residual = 0.000271686, Final residual = 1.16758e-07, No Iterations 1
DILUPBiCG:  Solving for Uz, Initial residual = 0.00059595, Final residual = 2.21767e-08, No Iterations 1
DICPCG:  Solving for p, Initial residual = 0.00163747, Final residual = 9.80744e-07, No Iterations 162
time step continuity errors : sum local = 4.42423e-12, global = -8.23308e-15, cumulative = -4.17147e-11
DICPCG:  Solving for p, Initial residual = 0.000269132, Final residual = 9.64315e-07, No Iterations 49
time step continuity errors : sum local = 4.34275e-12, global = -5.47885e-13, cumulative = -4.22625e-11
ExecutionTime = 159.58 s  ClockTime = 160 s

Time = 0.239

Courant Number mean: 0.002103 max: 0.0772562
DILUPBiCG:  Solving for Ux, Initial residual = 0.000563731, Final residual = 1.7994e-08, No Iterations 1
DILUPBiCG:  Solving for Uy, Initial residual = 0.00027084, Final residual = 1.17107e-07, No Iterations 1
DILUPBiCG:  Solving for Uz, Initial residual = 0.000593862, Final residual = 2.2068e-08, No Iterations 1
DICPCG:  Solving for p, Initial residual = 0.00166194, Final residual = 9.21688e-07, No Iterations 161
time step continuity errors : sum local = 4.14746e-12, global = 9.97756e-15, cumulative = -4.22526e-11
DICPCG:  Solving for p, Initial residual = 0.000281892, Final residual = 9.98572e-07, No Iterations 49
time step continuity errors : sum local = 4.48579e-12, global = -5.62704e-13, cumulative = -4.28153e-11
ExecutionTime = 160.14 s  ClockTime = 161 s

Time = 0.24

Courant Number mean: 0.00210289 max: 0.0772556
DILUPBiCG:  Solving for Ux, Initial residual = 0.000561753, Final residual = 1.78631e-08, No Iterations 1
DILUPBiCG:  Solving for Uy, Initial residual = 0.000269988, Final residual = 1.18355e-07, No Iterations 1
DILUPBiCG:  Solving for Uz, Initial residual = 0.000591793, Final residual = 2.19652e-08, No Iterations 1
DICPCG:  Solving for p, Initial residual = 0.00165925, Final residual = 9.63407e-07, No Iterations 170
time step continuity errors : sum local = 4.32429e-12, global = 6.84188e-15, cumulative = -4.28084e-11
DICPCG:  Solving for p, Initial residual = 0.000296208, Final residual = 9.84361e-07, No Iterations 53
time step continuity errors : sum local = 4.41079e-12, global = -5.12126e-13, cumulative = -4.33206e-11
ExecutionTime = 161.18 s  ClockTime = 162 s

Time = 0.241

Courant Number mean: 0.00210278 max: 0.077255
DILUPBiCG:  Solving for Ux, Initial residual = 0.000559745, Final residual = 1.77335e-08, No Iterations 1
DILUPBiCG:  Solving for Uy, Initial residual = 0.000269133, Final residual = 1.18786e-07, No Iterations 1
DILUPBiCG:  Solving for Uz, Initial residual = 0.000589749, Final residual = 2.18521e-08, No Iterations 1
DICPCG:  Solving for p, Initial residual = 0.00167208, Final residual = 9.49118e-07, No Iterations 170
time step continuity errors : sum local = 4.2493e-12, global = 1.15763e-14, cumulative = -4.3309e-11
DICPCG:  Solving for p, Initial residual = 0.000313025, Final residual = 9.46294e-07, No Iterations 52
time step continuity errors : sum local = 4.22935e-12, global = -5.37522e-13, cumulative = -4.38465e-11
ExecutionTime = 161.76 s  ClockTime = 163 s

Time = 0.242

Courant Number mean: 0.00210267 max: 0.0772544
DILUPBiCG:  Solving for Ux, Initial residual = 0.000557706, Final residual = 1.75942e-08, No Iterations 1
DILUPBiCG:  Solving for Uy, Initial residual = 0.000268292, Final residual = 1.19156e-07, No Iterations 1
DILUPBiCG:  Solving for Uz, Initial residual = 0.000587709, Final residual = 2.17458e-08, No Iterations 1
DICPCG:  Solving for p, Initial residual = 0.00165094, Final residual = 9.97515e-07, No Iterations 161
time step continuity errors : sum local = 4.45468e-12, global = -9.54516e-15, cumulative = -4.3856e-11
DICPCG:  Solving for p, Initial residual = 0.000289621, Final residual = 9.76406e-07, No Iterations 56
time step continuity errors : sum local = 4.35301e-12, global = -4.80096e-13, cumulative = -4.43361e-11
ExecutionTime = 162.34 s  ClockTime = 163 s

Time = 0.243

Courant Number mean: 0.00210256 max: 0.0772538
DILUPBiCG:  Solving for Ux, Initial residual = 0.000555683, Final residual = 1.74621e-08, No Iterations 1
DILUPBiCG:  Solving for Uy, Initial residual = 0.000267437, Final residual = 1.20093e-07, No Iterations 1
DILUPBiCG:  Solving for Uz, Initial residual = 0.000585648, Final residual = 2.16509e-08, No Iterations 1
DICPCG:  Solving for p, Initial residual = 0.0016527, Final residual = 9.54865e-07, No Iterations 162
time step continuity errors : sum local = 4.25345e-12, global = 5.67565e-15, cumulative = -4.43305e-11
DICPCG:  Solving for p, Initial residual = 0.000286735, Final residual = 9.89488e-07, No Iterations 54
time step continuity errors : sum local = 4.40015e-12, global = -5.16235e-13, cumulative = -4.48467e-11
ExecutionTime = 162.91 s  ClockTime = 164 s

Time = 0.244

Courant Number mean: 0.00210245 max: 0.0772532
DILUPBiCG:  Solving for Ux, Initial residual = 0.000553691, Final residual = 1.73407e-08, No Iterations 1
DILUPBiCG:  Solving for Uy, Initial residual = 0.0002666, Final residual = 1.19861e-07, No Iterations 1
DILUPBiCG:  Solving for Uz, Initial residual = 0.000583576, Final residual = 2.15486e-08, No Iterations 1
DICPCG:  Solving for p, Initial residual = 0.00161438, Final residual = 9.71455e-07, No Iterations 163
time step continuity errors : sum local = 4.31655e-12, global = -4.37789e-15, cumulative = -4.48511e-11
DICPCG:  Solving for p, Initial residual = 0.000264778, Final residual = 9.60275e-07, No Iterations 47
time step continuity errors : sum local = 4.25978e-12, global = -5.4984e-13, cumulative = -4.54009e-11
ExecutionTime = 163.48 s  ClockTime = 164 s

Time = 0.245

Courant Number mean: 0.00210234 max: 0.0772526
DILUPBiCG:  Solving for Ux, Initial residual = 0.000551745, Final residual = 1.72129e-08, No Iterations 1
DILUPBiCG:  Solving for Uy, Initial residual = 0.000265788, Final residual = 1.19914e-07, No Iterations 1
DILUPBiCG:  Solving for Uz, Initial residual = 0.000581553, Final residual = 2.14399e-08, No Iterations 1
DICPCG:  Solving for p, Initial residual = 0.00160639, Final residual = 9.69735e-07, No Iterations 161
time step continuity errors : sum local = 4.29827e-12, global = 2.04139e-14, cumulative = -4.53805e-11
DICPCG:  Solving for p, Initial residual = 0.000272985, Final residual = 9.48699e-07, No Iterations 57
time step continuity errors : sum local = 4.19796e-12, global = -4.69184e-13, cumulative = -4.58497e-11
ExecutionTime = 164.05 s  ClockTime = 165 s

Time = 0.246

Courant Number mean: 0.00210223 max: 0.0772521
DILUPBiCG:  Solving for Ux, Initial residual = 0.000549782, Final residual = 1.70902e-08, No Iterations 1
DILUPBiCG:  Solving for Uy, Initial residual = 0.000264954, Final residual = 1.2055e-07, No Iterations 1
DILUPBiCG:  Solving for Uz, Initial residual = 0.000579548, Final residual = 2.13362e-08, No Iterations 1
DICPCG:  Solving for p, Initial residual = 0.00159956, Final residual = 9.32585e-07, No Iterations 159
time step continuity errors : sum local = 4.12333e-12, global = 2.40619e-14, cumulative = -4.58256e-11
DICPCG:  Solving for p, Initial residual = 0.000267213, Final residual = 9.34529e-07, No Iterations 56
time step continuity errors : sum local = 4.12505e-12, global = -4.36878e-13, cumulative = -4.62625e-11
ExecutionTime = 164.63 s  ClockTime = 165 s

Time = 0.247

Courant Number mean: 0.00210212 max: 0.0772515
DILUPBiCG:  Solving for Ux, Initial residual = 0.000547833, Final residual = 1.69729e-08, No Iterations 1
DILUPBiCG:  Solving for Uy, Initial residual = 0.000264135, Final residual = 1.20283e-07, No Iterations 1
DILUPBiCG:  Solving for Uz, Initial residual = 0.00057755, Final residual = 2.12252e-08, No Iterations 1
DICPCG:  Solving for p, Initial residual = 0.00162287, Final residual = 9.65406e-07, No Iterations 162
time step continuity errors : sum local = 4.25787e-12, global = 1.00379e-14, cumulative = -4.62525e-11
DICPCG:  Solving for p, Initial residual = 0.00026872, Final residual = 9.83906e-07, No Iterations 45
time step continuity errors : sum local = 4.33216e-12, global = -5.24282e-13, cumulative = -4.67767e-11
ExecutionTime = 165.17 s  ClockTime = 166 s

Time = 0.248

Courant Number mean: 0.00210201 max: 0.0772509
DILUPBiCG:  Solving for Ux, Initial residual = 0.000545914, Final residual = 1.68519e-08, No Iterations 1
DILUPBiCG:  Solving for Uy, Initial residual = 0.000263289, Final residual = 1.20444e-07, No Iterations 1
DILUPBiCG:  Solving for Uz, Initial residual = 0.000575543, Final residual = 2.11107e-08, No Iterations 1
DICPCG:  Solving for p, Initial residual = 0.00159242, Final residual = 9.3167e-07, No Iterations 164
time step continuity errors : sum local = 4.09888e-12, global = 2.47385e-15, cumulative = -4.67743e-11
DICPCG:  Solving for p, Initial residual = 0.000270552, Final residual = 9.53538e-07, No Iterations 50
time step continuity errors : sum local = 4.18813e-12, global = -5.12869e-13, cumulative = -4.72871e-11
ExecutionTime = 165.72 s  ClockTime = 167 s

Time = 0.249

Courant Number mean: 0.0021019 max: 0.0772504
DILUPBiCG:  Solving for Ux, Initial residual = 0.000543994, Final residual = 1.6721e-08, No Iterations 1
DILUPBiCG:  Solving for Uy, Initial residual = 0.000262489, Final residual = 1.21437e-07, No Iterations 1
DILUPBiCG:  Solving for Uz, Initial residual = 0.00057356, Final residual = 2.09979e-08, No Iterations 1
DICPCG:  Solving for p, Initial residual = 0.00158423, Final residual = 9.37512e-07, No Iterations 164
time step continuity errors : sum local = 4.1144e-12, global = -1.11024e-15, cumulative = -4.72883e-11
DICPCG:  Solving for p, Initial residual = 0.000267434, Final residual = 9.92831e-07, No Iterations 44
time step continuity errors : sum local = 4.34995e-12, global = -5.07699e-13, cumulative = -4.77959e-11
ExecutionTime = 166.26 s  ClockTime = 167 s

Time = 0.25

Courant Number mean: 0.0021018 max: 0.0772498
DILUPBiCG:  Solving for Ux, Initial residual = 0.000542061, Final residual = 1.65997e-08, No Iterations 1
DILUPBiCG:  Solving for Uy, Initial residual = 0.000261668, Final residual = 1.21534e-07, No Iterations 1
DILUPBiCG:  Solving for Uz, Initial residual = 0.000571578, Final residual = 2.09038e-08, No Iterations 1
DICPCG:  Solving for p, Initial residual = 0.00155997, Final residual = 8.98611e-07, No Iterations 160
time step continuity errors : sum local = 3.93407e-12, global = 1.96931e-14, cumulative = -4.77763e-11
DICPCG:  Solving for p, Initial residual = 0.000254883, Final residual = 9.60883e-07, No Iterations 44
time step continuity errors : sum local = 4.19987e-12, global = -5.1249e-13, cumulative = -4.82887e-11
ExecutionTime = 167.23 s  ClockTime = 168 s

Time = 0.251

Courant Number mean: 0.00210169 max: 0.0772492
DILUPBiCG:  Solving for Ux, Initial residual = 0.000540152, Final residual = 1.64785e-08, No Iterations 1
DILUPBiCG:  Solving for Uy, Initial residual = 0.000260886, Final residual = 1.22002e-07, No Iterations 1
DILUPBiCG:  Solving for Uz, Initial residual = 0.000569621, Final residual = 2.0799e-08, No Iterations 1
DICPCG:  Solving for p, Initial residual = 0.00156362, Final residual = 9.51244e-07, No Iterations 161
time step continuity errors : sum local = 4.15452e-12, global = 1.01186e-14, cumulative = -4.82786e-11
DICPCG:  Solving for p, Initial residual = 0.000264422, Final residual = 9.60511e-07, No Iterations 49
time step continuity errors : sum local = 4.1882e-12, global = -4.94401e-13, cumulative = -4.8773e-11
ExecutionTime = 167.77 s  ClockTime = 169 s

Time = 0.252

Courant Number mean: 0.00210158 max: 0.0772487
DILUPBiCG:  Solving for Ux, Initial residual = 0.000538239, Final residual = 1.63637e-08, No Iterations 1
DILUPBiCG:  Solving for Uy, Initial residual = 0.000260096, Final residual = 1.21522e-07, No Iterations 1
DILUPBiCG:  Solving for Uz, Initial residual = 0.000567657, Final residual = 2.06955e-08, No Iterations 1
DICPCG:  Solving for p, Initial residual = 0.00156414, Final residual = 9.35758e-07, No Iterations 160
time step continuity errors : sum local = 4.07715e-12, global = 2.89483e-14, cumulative = -4.87441e-11
DICPCG:  Solving for p, Initial residual = 0.000259022, Final residual = 9.94691e-07, No Iterations 47
time step continuity errors : sum local = 4.327e-12, global = -5.1128e-13, cumulative = -4.92554e-11
ExecutionTime = 168.32 s  ClockTime = 169 s

Time = 0.253

Courant Number mean: 0.00210147 max: 0.0772482
DILUPBiCG:  Solving for Ux, Initial residual = 0.000536357, Final residual = 1.62476e-08, No Iterations 1
DILUPBiCG:  Solving for Uy, Initial residual = 0.000259314, Final residual = 1.21845e-07, No Iterations 1
DILUPBiCG:  Solving for Uz, Initial residual = 0.000565712, Final residual = 2.05965e-08, No Iterations 1
DICPCG:  Solving for p, Initial residual = 0.00155803, Final residual = 9.70924e-07, No Iterations 162
time step continuity errors : sum local = 4.22037e-12, global = 1.98064e-14, cumulative = -4.92356e-11
DICPCG:  Solving for p, Initial residual = 0.000264742, Final residual = 9.85809e-07, No Iterations 48
time step continuity errors : sum local = 4.27822e-12, global = -4.96752e-13, cumulative = -4.97323e-11
ExecutionTime = 168.9 s  ClockTime = 170 s

Time = 0.254

Courant Number mean: 0.00210137 max: 0.0772476
DILUPBiCG:  Solving for Ux, Initial residual = 0.000534481, Final residual = 1.6134e-08, No Iterations 1
DILUPBiCG:  Solving for Uy, Initial residual = 0.000258521, Final residual = 1.21048e-07, No Iterations 1
DILUPBiCG:  Solving for Uz, Initial residual = 0.000563766, Final residual = 2.04985e-08, No Iterations 1
