/*---------------------------------------------------------------------------*\
| =========                 |                                                 |
| \\      /  F ield         | OpenFOAM: The Open Source CFD Toolbox           |
|  \\    /   O peration     | Version:  2.1.1                                 |
|   \\  /    A nd           | Web:      www.OpenFOAM.org                      |
|    \\/     M anipulation  |                                                 |
\*---------------------------------------------------------------------------*/
Build  : 2.1.1-221db2718bbb
Exec   : ideasUnvToFoam Mesh_1.unv
Date   : Sep 30 2018
Time   : 15:08:36
Host   : "yarik-VirtualBox"
PID    : 4475
Case   : /home/yarik/Documents/diploma/lab4
nProcs : 1
sigFpe : Enabling floating point exception trapping (FOAM_SIGFPE).
fileModificationChecking : Monitoring run-time modified files using timeStampMaster
allowSystemOperations : Disallowing user-supplied system call operations

// * * * * * * * * * * * * * * * * * * * * * * * * * * * * * * * * * * * * * //
Create time

Processing tag:164
Starting reading units at line 3.
l:1
units:"  SI: Meter (newton)"
unitType:2
Unit factors:
    Length scale       : 1
    Force scale        : 1
    Temperature scale  : 1
    Temperature offset : 273.15


Processing tag:2420
Skipping tag 2420 on line 9
Skipping section at line 9.

Processing tag:2411
Starting reading points at line 20.
Read 17351 points.

Processing tag:2412
Starting reading cells at line 34725.
First occurrence of element type 11 for cell 1 at line 34726
First occurrence of element type 41 for cell 559 at line 36400
First occurrence of element type 111 for cell 21125 at line 77532
Read 69848 cells and 20566 boundary faces.

Processing tag:2467
Starting reading patches at line 217230.
For group 1 named outpipe trying to read 1840 patch face indices.
For group 2 named top trying to read 7318 patch face indices.
For group 3 named left_forward trying to read 1496 patch face indices.
For group 4 named right_forward trying to read 1496 patch face indices.
For group 5 named left_back trying to read 1496 patch face indices.
For group 6 named right_back trying to read 1496 patch face indices.
For group 7 named bottom trying to read 2942 patch face indices.
For group 8 named inlet trying to read 321 patch face indices.
For group 9 named inpipe trying to read 1840 patch face indices.
For group 10 named outlet trying to read 321 patch face indices.

Sorting boundary faces according to group (patch)
0: outpipe is patch
1: top is patch
2: left_forward is patch
3: right_forward is patch
4: left_back is patch
5: right_back is patch
6: bottom is patch
7: inlet is patch
8: inpipe is patch
9: outlet is patch

Constructing mesh with non-default patches of size:
    outpipe	1840
    top	7318
    left_forward	1496
    right_forward	1496
    left_back	1496
    right_back	1496
    bottom	2942
    inlet	321
    inpipe	1840
    outlet	321

End

