/*---------------------------------------------------------------------------*\
| =========                 |                                                 |
| \\      /  F ield         | OpenFOAM: The Open Source CFD Toolbox           |
|  \\    /   O peration     | Version:  2.1.1                                 |
|   \\  /    A nd           | Web:      www.OpenFOAM.org                      |
|    \\/     M anipulation  |                                                 |
\*---------------------------------------------------------------------------*/
Build  : 2.1.1-221db2718bbb
Exec   : icoFoam
Date   : Sep 27 2018
Time   : 22:01:15
Host   : "yarik-VirtualBox"
PID    : 17363
Case   : /home/yarik/Documents/diploma/lab2
nProcs : 1
sigFpe : Enabling floating point exception trapping (FOAM_SIGFPE).
fileModificationChecking : Monitoring run-time modified files using timeStampMaster
allowSystemOperations : Disallowing user-supplied system call operations

// * * * * * * * * * * * * * * * * * * * * * * * * * * * * * * * * * * * * * //
Create time

Create mesh for time = 0

Reading transportProperties

Reading field p

Reading field U

Reading/calculating face flux field phi


Starting time loop

Time = 0.0001

Courant Number mean: 8.33589e-07 max: 0.00556116
DILUPBiCG:  Solving for Ux, Initial residual = 0, Final residual = 0, No Iterations 0
DILUPBiCG:  Solving for Uy, Initial residual = 0, Final residual = 0, No Iterations 0
DILUPBiCG:  Solving for Uz, Initial residual = 1, Final residual = 6.67159e-06, No Iterations 1
DICPCG:  Solving for p, Initial residual = 1, Final residual = 9.52177e-07, No Iterations 290
time step continuity errors : sum local = 1.58765e-12, global = 3.39869e-16, cumulative = 3.39869e-16
DICPCG:  Solving for p, Initial residual = 0.155198, Final residual = 9.97364e-07, No Iterations 230
time step continuity errors : sum local = 8.76283e-10, global = -2.07019e-13, cumulative = -2.06679e-13
ExecutionTime = 1.73 s  ClockTime = 9 s

Time = 0.0002

Courant Number mean: 0.000509052 max: 0.0181222
DILUPBiCG:  Solving for Ux, Initial residual = 0.333013, Final residual = 3.95736e-07, No Iterations 1
DILUPBiCG:  Solving for Uy, Initial residual = 0.333058, Final residual = 4.29906e-07, No Iterations 1
DILUPBiCG:  Solving for Uz, Initial residual = 0.511268, Final residual = 7.02506e-07, No Iterations 1
DICPCG:  Solving for p, Initial residual = 0.0369411, Final residual = 9.89553e-07, No Iterations 239
time step continuity errors : sum local = 9.56457e-10, global = -8.55099e-12, cumulative = -8.75767e-12
DICPCG:  Solving for p, Initial residual = 0.600539, Final residual = 9.694e-07, No Iterations 248
time step continuity errors : sum local = 2.20367e-10, global = 6.11111e-13, cumulative = -8.14656e-12
ExecutionTime = 3.19 s  ClockTime = 18 s

Time = 0.0003

Courant Number mean: 0.00050995 max: 0.0165962
DILUPBiCG:  Solving for Ux, Initial residual = 0.0551723, Final residual = 5.76884e-08, No Iterations 1
DILUPBiCG:  Solving for Uy, Initial residual = 0.0478049, Final residual = 4.78214e-08, No Iterations 1
DILUPBiCG:  Solving for Uz, Initial residual = 0.0123827, Final residual = 1.61616e-08, No Iterations 1
DICPCG:  Solving for p, Initial residual = 0.603492, Final residual = 9.42447e-07, No Iterations 247
time step continuity errors : sum local = 4.45406e-11, global = -2.94367e-14, cumulative = -8.176e-12
DICPCG:  Solving for p, Initial residual = 0.147485, Final residual = 9.73622e-07, No Iterations 230
time step continuity errors : sum local = 3.28275e-11, global = -3.09147e-14, cumulative = -8.20691e-12
ExecutionTime = 4.65 s  ClockTime = 27 s

Time = 0.0004

Courant Number mean: 0.000510331 max: 0.0168975
DILUPBiCG:  Solving for Ux, Initial residual = 0.0206961, Final residual = 1.90945e-08, No Iterations 1
DILUPBiCG:  Solving for Uy, Initial residual = 0.0180992, Final residual = 1.76736e-08, No Iterations 1
DILUPBiCG:  Solving for Uz, Initial residual = 0.0065214, Final residual = 7.73017e-09, No Iterations 1
DICPCG:  Solving for p, Initial residual = 0.192743, Final residual = 9.77876e-07, No Iterations 233
time step continuity errors : sum local = 2.57557e-11, global = 8.72274e-14, cumulative = -8.11969e-12
DICPCG:  Solving for p, Initial residual = 0.0487562, Final residual = 9.8214e-07, No Iterations 216
time step continuity errors : sum local = 1.94121e-11, global = 2.20069e-14, cumulative = -8.09768e-12
ExecutionTime = 6.07 s  ClockTime = 37 s

Time = 0.0005

Courant Number mean: 0.000510346 max: 0.0169903
DILUPBiCG:  Solving for Ux, Initial residual = 0.0125651, Final residual = 1.13616e-08, No Iterations 1
DILUPBiCG:  Solving for Uy, Initial residual = 0.011077, Final residual = 1.04776e-08, No Iterations 1
DILUPBiCG:  Solving for Uz, Initial residual = 0.00433331, Final residual = 5.38123e-09, No Iterations 1
DICPCG:  Solving for p, Initial residual = 0.110795, Final residual = 9.03755e-07, No Iterations 230
time step continuity errors : sum local = 1.66189e-11, global = 1.34361e-13, cumulative = -7.96332e-12
DICPCG:  Solving for p, Initial residual = 0.027489, Final residual = 9.25052e-07, No Iterations 215
time step continuity errors : sum local = 1.40178e-11, global = 5.36122e-14, cumulative = -7.90971e-12
ExecutionTime = 7.46 s  ClockTime = 46 s

Time = 0.0006

Courant Number mean: 0.000510308 max: 0.0170274
DILUPBiCG:  Solving for Ux, Initial residual = 0.00931847, Final residual = 8.27756e-09, No Iterations 1
DILUPBiCG:  Solving for Uy, Initial residual = 0.00823034, Final residual = 7.61747e-09, No Iterations 1
DILUPBiCG:  Solving for Uz, Initial residual = 0.00315874, Final residual = 3.9796e-09, No Iterations 1
DICPCG:  Solving for p, Initial residual = 0.0806935, Final residual = 9.77483e-07, No Iterations 226
time step continuity errors : sum local = 1.40552e-11, global = 9.47695e-14, cumulative = -7.81494e-12
DICPCG:  Solving for p, Initial residual = 0.0187485, Final residual = 9.09547e-07, No Iterations 212
time step continuity errors : sum local = 1.13363e-11, global = -4.57027e-14, cumulative = -7.86064e-12
ExecutionTime = 8.81 s  ClockTime = 56 s

Time = 0.0007

Courant Number mean: 0.000510261 max: 0.0170428
DILUPBiCG:  Solving for Ux, Initial residual = 0.00752038, Final residual = 6.5968e-09, No Iterations 1
DILUPBiCG:  Solving for Uy, Initial residual = 0.00662845, Final residual = 6.0362e-09, No Iterations 1
DILUPBiCG:  Solving for Uz, Initial residual = 0.0024438, Final residual = 3.09096e-09, No Iterations 1
DICPCG:  Solving for p, Initial residual = 0.0660324, Final residual = 9.92191e-07, No Iterations 223
time step continuity errors : sum local = 1.18166e-11, global = 4.14668e-14, cumulative = -7.81917e-12
DICPCG:  Solving for p, Initial residual = 0.0142848, Final residual = 8.96196e-07, No Iterations 210
time step continuity errors : sum local = 9.51257e-12, global = -1.67291e-14, cumulative = -7.8359e-12
ExecutionTime = 10.15 s  ClockTime = 65 s

Time = 0.0008

Courant Number mean: 0.000510211 max: 0.0170478
DILUPBiCG:  Solving for Ux, Initial residual = 0.006336, Final residual = 5.5345e-09, No Iterations 1
DILUPBiCG:  Solving for Uy, Initial residual = 0.00557363, Final residual = 5.02638e-09, No Iterations 1
DILUPBiCG:  Solving for Uz, Initial residual = 0.00196791, Final residual = 2.49383e-09, No Iterations 1
DICPCG:  Solving for p, Initial residual = 0.0564284, Final residual = 9.6422e-07, No Iterations 221
time step continuity errors : sum local = 9.82839e-12, global = -2.15422e-14, cumulative = -7.85744e-12
DICPCG:  Solving for p, Initial residual = 0.0114858, Final residual = 8.98868e-07, No Iterations 209
time step continuity errors : sum local = 8.31869e-12, global = -4.69335e-15, cumulative = -7.86214e-12
ExecutionTime = 11.46 s  ClockTime = 75 s

Time = 0.0009

Courant Number mean: 0.00051016 max: 0.0170475
DILUPBiCG:  Solving for Ux, Initial residual = 0.005491, Final residual = 4.80329e-09, No Iterations 1
DILUPBiCG:  Solving for Uy, Initial residual = 0.00482119, Final residual = 4.32327e-09, No Iterations 1
DILUPBiCG:  Solving for Uz, Initial residual = 0.00163191, Final residual = 2.06784e-09, No Iterations 1
DICPCG:  Solving for p, Initial residual = 0.0496305, Final residual = 9.79471e-07, No Iterations 217
time step continuity errors : sum local = 8.73804e-12, global = 4.11574e-16, cumulative = -7.86173e-12
DICPCG:  Solving for p, Initial residual = 0.00953626, Final residual = 8.67024e-07, No Iterations 208
time step continuity errors : sum local = 7.11662e-12, global = 1.49389e-14, cumulative = -7.84679e-12
ExecutionTime = 12.82 s  ClockTime = 85 s

Time = 0.001

Courant Number mean: 0.000510111 max: 0.0170442
DILUPBiCG:  Solving for Ux, Initial residual = 0.00485626, Final residual = 4.27183e-09, No Iterations 1
DILUPBiCG:  Solving for Uy, Initial residual = 0.00425601, Final residual = 3.81244e-09, No Iterations 1
DILUPBiCG:  Solving for Uz, Initial residual = 0.00138454, Final residual = 1.75198e-09, No Iterations 1
DICPCG:  Solving for p, Initial residual = 0.044517, Final residual = 9.23348e-07, No Iterations 216
time step continuity errors : sum local = 7.32761e-12, global = 1.37226e-14, cumulative = -7.83306e-12
DICPCG:  Solving for p, Initial residual = 0.00811445, Final residual = 8.66041e-07, No Iterations 207
time step continuity errors : sum local = 6.38694e-12, global = 3.08594e-14, cumulative = -7.8022e-12
ExecutionTime = 14.07 s  ClockTime = 93 s

Time = 0.0011

Courant Number mean: 0.000510063 max: 0.0170393
DILUPBiCG:  Solving for Ux, Initial residual = 0.00436129, Final residual = 3.86987e-09, No Iterations 1
DILUPBiCG:  Solving for Uy, Initial residual = 0.00381591, Final residual = 3.42478e-09, No Iterations 1
DILUPBiCG:  Solving for Uz, Initial residual = 0.00119658, Final residual = 1.51099e-09, No Iterations 1
DICPCG:  Solving for p, Initial residual = 0.0404171, Final residual = 9.35921e-07, No Iterations 215
time step continuity errors : sum local = 6.69042e-12, global = 1.6094e-14, cumulative = -7.78611e-12
DICPCG:  Solving for p, Initial residual = 0.00701493, Final residual = 8.89811e-07, No Iterations 206
time step continuity errors : sum local = 5.95826e-12, global = 4.35759e-14, cumulative = -7.74253e-12
ExecutionTime = 15.29 s  ClockTime = 101 s

Time = 0.0012

Courant Number mean: 0.000510016 max: 0.0170336
DILUPBiCG:  Solving for Ux, Initial residual = 0.00396396, Final residual = 3.55976e-09, No Iterations 1
DILUPBiCG:  Solving for Uy, Initial residual = 0.00346341, Final residual = 3.12467e-09, No Iterations 1
DILUPBiCG:  Solving for Uz, Initial residual = 0.00105029, Final residual = 1.32239e-09, No Iterations 1
DICPCG:  Solving for p, Initial residual = 0.0371452, Final residual = 9.74141e-07, No Iterations 213
time step continuity errors : sum local = 6.33554e-12, global = 9.50293e-15, cumulative = -7.73303e-12
DICPCG:  Solving for p, Initial residual = 0.00615381, Final residual = 8.91947e-07, No Iterations 205
time step continuity errors : sum local = 5.46872e-12, global = 4.07532e-14, cumulative = -7.69228e-12
ExecutionTime = 16.5 s  ClockTime = 109 s

Time = 0.0013

Courant Number mean: 0.000509972 max: 0.0170274
DILUPBiCG:  Solving for Ux, Initial residual = 0.00363906, Final residual = 3.31533e-09, No Iterations 1
DILUPBiCG:  Solving for Uy, Initial residual = 0.00317543, Final residual = 2.88844e-09, No Iterations 1
DILUPBiCG:  Solving for Uz, Initial residual = 0.000934353, Final residual = 1.17252e-09, No Iterations 1
DICPCG:  Solving for p, Initial residual = 0.0344305, Final residual = 9.843e-07, No Iterations 212
time step continuity errors : sum local = 5.87192e-12, global = 2.15277e-15, cumulative = -7.69013e-12
DICPCG:  Solving for p, Initial residual = 0.00546295, Final residual = 9.10632e-07, No Iterations 204
time step continuity errors : sum local = 5.14823e-12, global = 2.85766e-14, cumulative = -7.66155e-12
ExecutionTime = 17.7 s  ClockTime = 116 s

Time = 0.0014

Courant Number mean: 0.000509929 max: 0.0170209
DILUPBiCG:  Solving for Ux, Initial residual = 0.00336786, Final residual = 3.11618e-09, No Iterations 1
DILUPBiCG:  Solving for Uy, Initial residual = 0.00293586, Final residual = 2.69899e-09, No Iterations 1
DILUPBiCG:  Solving for Uz, Initial residual = 0.000840563, Final residual = 1.05171e-09, No Iterations 1
DICPCG:  Solving for p, Initial residual = 0.0321338, Final residual = 9.70227e-07, No Iterations 211
time step continuity errors : sum local = 5.34497e-12, global = -7.86567e-15, cumulative = -7.66941e-12
DICPCG:  Solving for p, Initial residual = 0.00489366, Final residual = 9.1801e-07, No Iterations 203
time step continuity errors : sum local = 4.8139e-12, global = 1.75417e-14, cumulative = -7.65187e-12
ExecutionTime = 18.9 s  ClockTime = 124 s

Time = 0.0015

Courant Number mean: 0.000509888 max: 0.0170143
DILUPBiCG:  Solving for Ux, Initial residual = 0.00313862, Final residual = 2.95428e-09, No Iterations 1
DILUPBiCG:  Solving for Uy, Initial residual = 0.00273328, Final residual = 2.54332e-09, No Iterations 1
DILUPBiCG:  Solving for Uz, Initial residual = 0.000763725, Final residual = 9.53313e-10, No Iterations 1
DICPCG:  Solving for p, Initial residual = 0.0301712, Final residual = 8.8111e-07, No Iterations 211
time step continuity errors : sum local = 4.50831e-12, global = -2.52209e-15, cumulative = -7.6544e-12
DICPCG:  Solving for p, Initial residual = 0.00441721, Final residual = 9.47034e-07, No Iterations 202
time step continuity errors : sum local = 4.62992e-12, global = 1.37902e-14, cumulative = -7.6406e-12
ExecutionTime = 20.1 s  ClockTime = 132 s

Time = 0.0016

Courant Number mean: 0.000509848 max: 0.0170076
DILUPBiCG:  Solving for Ux, Initial residual = 0.00294226, Final residual = 2.8208e-09, No Iterations 1
DILUPBiCG:  Solving for Uy, Initial residual = 0.00255972, Final residual = 2.41518e-09, No Iterations 1
DILUPBiCG:  Solving for Uz, Initial residual = 0.000700171, Final residual = 8.72677e-10, No Iterations 1
DICPCG:  Solving for p, Initial residual = 0.028459, Final residual = 9.68192e-07, No Iterations 210
time step continuity errors : sum local = 4.62406e-12, global = -9.46789e-15, cumulative = -7.65007e-12
DICPCG:  Solving for p, Initial residual = 0.00401556, Final residual = 9.69023e-07, No Iterations 201
time step continuity errors : sum local = 4.43653e-12, global = 1.02824e-14, cumulative = -7.63979e-12
ExecutionTime = 21.29 s  ClockTime = 140 s

Time = 0.0017

Courant Number mean: 0.000509809 max: 0.0170008
DILUPBiCG:  Solving for Ux, Initial residual = 0.00277242, Final residual = 2.70922e-09, No Iterations 1
DILUPBiCG:  Solving for Uy, Initial residual = 0.00240964, Final residual = 2.3081e-09, No Iterations 1
DILUPBiCG:  Solving for Uz, Initial residual = 0.000646887, Final residual = 8.0594e-10, No Iterations 1
DICPCG:  Solving for p, Initial residual = 0.0269561, Final residual = 8.92361e-07, No Iterations 210
time step continuity errors : sum local = 3.99537e-12, global = -4.46807e-15, cumulative = -7.64426e-12
DICPCG:  Solving for p, Initial residual = 0.00367673, Final residual = 9.70332e-07, No Iterations 200
time step continuity errors : sum local = 4.17651e-12, global = 5.86645e-15, cumulative = -7.63839e-12
ExecutionTime = 22.49 s  ClockTime = 148 s

Time = 0.0018

Courant Number mean: 0.000509772 max: 0.0169941
DILUPBiCG:  Solving for Ux, Initial residual = 0.00262376, Final residual = 2.61426e-09, No Iterations 1
DILUPBiCG:  Solving for Uy, Initial residual = 0.0022786, Final residual = 2.21797e-09, No Iterations 1
DILUPBiCG:  Solving for Uz, Initial residual = 0.000601684, Final residual = 7.50645e-10, No Iterations 1
DICPCG:  Solving for p, Initial residual = 0.0256326, Final residual = 9.73582e-07, No Iterations 209
time step continuity errors : sum local = 4.10181e-12, global = -9.84523e-15, cumulative = -7.64824e-12
DICPCG:  Solving for p, Initial residual = 0.00338124, Final residual = 8.73133e-07, No Iterations 200
time step continuity errors : sum local = 3.54513e-12, global = 4.91901e-15, cumulative = -7.64332e-12
ExecutionTime = 23.68 s  ClockTime = 156 s

Time = 0.0019

Courant Number mean: 0.000509737 max: 0.0169873
DILUPBiCG:  Solving for Ux, Initial residual = 0.00249286, Final residual = 2.53356e-09, No Iterations 1
DILUPBiCG:  Solving for Uy, Initial residual = 0.00216298, Final residual = 2.14192e-09, No Iterations 1
DILUPBiCG:  Solving for Uz, Initial residual = 0.000562961, Final residual = 7.04762e-10, No Iterations 1
DICPCG:  Solving for p, Initial residual = 0.0244483, Final residual = 9.48361e-07, No Iterations 209
time step continuity errors : sum local = 3.77219e-12, global = -8.04635e-15, cumulative = -7.65136e-12
DICPCG:  Solving for p, Initial residual = 0.00312858, Final residual = 9.22414e-07, No Iterations 199
time step continuity errors : sum local = 3.54359e-12, global = -4.73056e-15, cumulative = -7.6561e-12
ExecutionTime = 24.87 s  ClockTime = 164 s

Time = 0.002

Courant Number mean: 0.000509702 max: 0.0169806
DILUPBiCG:  Solving for Ux, Initial residual = 0.00237669, Final residual = 2.46429e-09, No Iterations 1
DILUPBiCG:  Solving for Uy, Initial residual = 0.00206043, Final residual = 2.07699e-09, No Iterations 1
DILUPBiCG:  Solving for Uz, Initial residual = 0.000529533, Final residual = 6.66508e-10, No Iterations 1
DICPCG:  Solving for p, Initial residual = 0.0233716, Final residual = 8.78184e-07, No Iterations 209
time step continuity errors : sum local = 3.30751e-12, global = -5.95753e-15, cumulative = -7.66205e-12
DICPCG:  Solving for p, Initial residual = 0.00290638, Final residual = 9.45627e-07, No Iterations 198
time step continuity errors : sum local = 3.44653e-12, global = -1.42232e-14, cumulative = -7.67628e-12
ExecutionTime = 26.05 s  ClockTime = 171 s

Time = 0.0021

Courant Number mean: 0.000509668 max: 0.0169739
DILUPBiCG:  Solving for Ux, Initial residual = 0.00227297, Final residual = 2.40395e-09, No Iterations 1
DILUPBiCG:  Solving for Uy, Initial residual = 0.00196896, Final residual = 2.02116e-09, No Iterations 1
DILUPBiCG:  Solving for Uz, Initial residual = 0.00050054, Final residual = 6.34382e-10, No Iterations 1
DICPCG:  Solving for p, Initial residual = 0.0224172, Final residual = 9.94667e-07, No Iterations 208
time step continuity errors : sum local = 3.55662e-12, global = -1.20015e-14, cumulative = -7.68828e-12
DICPCG:  Solving for p, Initial residual = 0.0027102, Final residual = 9.65366e-07, No Iterations 197
time step continuity errors : sum local = 3.34629e-12, global = -1.99779e-14, cumulative = -7.70826e-12
ExecutionTime = 27.27 s  ClockTime = 179 s

Time = 0.0022

Courant Number mean: 0.000509635 max: 0.0169673
DILUPBiCG:  Solving for Ux, Initial residual = 0.00217976, Final residual = 2.35126e-09, No Iterations 1
DILUPBiCG:  Solving for Uy, Initial residual = 0.00188683, Final residual = 1.97319e-09, No Iterations 1
DILUPBiCG:  Solving for Uz, Initial residual = 0.000475259, Final residual = 6.07409e-10, No Iterations 1
DICPCG:  Solving for p, Initial residual = 0.0215653, Final residual = 8.91018e-07, No Iterations 208
time step continuity errors : sum local = 3.03192e-12, global = -1.02833e-14, cumulative = -7.71854e-12
DICPCG:  Solving for p, Initial residual = 0.00253763, Final residual = 9.93527e-07, No Iterations 196
time step continuity errors : sum local = 3.28333e-12, global = -1.90142e-14, cumulative = -7.73755e-12
ExecutionTime = 28.44 s  ClockTime = 187 s

Time = 0.0023

Courant Number mean: 0.000509604 max: 0.0169607
DILUPBiCG:  Solving for Ux, Initial residual = 0.00209555, Final residual = 2.30524e-09, No Iterations 1
DILUPBiCG:  Solving for Uy, Initial residual = 0.0018127, Final residual = 1.93177e-09, No Iterations 1
DILUPBiCG:  Solving for Uz, Initial residual = 0.000453036, Final residual = 5.84752e-10, No Iterations 1
DICPCG:  Solving for p, Initial residual = 0.0207703, Final residual = 8.70838e-07, No Iterations 208
time step continuity errors : sum local = 2.82654e-12, global = -9.60308e-15, cumulative = -7.74716e-12
DICPCG:  Solving for p, Initial residual = 0.00237822, Final residual = 9.01365e-07, No Iterations 196
time step continuity errors : sum local = 2.84881e-12, global = -1.48482e-14, cumulative = -7.762e-12
ExecutionTime = 29.62 s  ClockTime = 195 s

Time = 0.0024

Courant Number mean: 0.000509573 max: 0.0169542
DILUPBiCG:  Solving for Ux, Initial residual = 0.00201903, Final residual = 2.26482e-09, No Iterations 1
DILUPBiCG:  Solving for Uy, Initial residual = 0.00174556, Final residual = 1.89564e-09, No Iterations 1
DILUPBiCG:  Solving for Uz, Initial residual = 0.000433338, Final residual = 5.65817e-10, No Iterations 1
DICPCG:  Solving for p, Initial residual = 0.0200367, Final residual = 8.93092e-07, No Iterations 207
time step continuity errors : sum local = 2.77278e-12, global = -1.27189e-14, cumulative = -7.77472e-12
DICPCG:  Solving for p, Initial residual = 0.00222858, Final residual = 9.921e-07, No Iterations 194
time step continuity errors : sum local = 3.01915e-12, global = -5.72066e-15, cumulative = -7.78044e-12
ExecutionTime = 30.77 s  ClockTime = 202 s

Time = 0.0025

Courant Number mean: 0.000509542 max: 0.0169478
DILUPBiCG:  Solving for Ux, Initial residual = 0.00194929, Final residual = 2.22858e-09, No Iterations 1
DILUPBiCG:  Solving for Uy, Initial residual = 0.00168445, Final residual = 1.86429e-09, No Iterations 1
DILUPBiCG:  Solving for Uz, Initial residual = 0.000415781, Final residual = 5.49863e-10, No Iterations 1
DICPCG:  Solving for p, Initial residual = 0.0192528, Final residual = 9.77878e-07, No Iterations 204
time step continuity errors : sum local = 2.92209e-12, global = -1.68751e-14, cumulative = -7.79732e-12
DICPCG:  Solving for p, Initial residual = 0.00208205, Final residual = 9.47751e-07, No Iterations 194
time step continuity errors : sum local = 2.79311e-12, global = -7.29472e-15, cumulative = -7.80461e-12
ExecutionTime = 32.04 s  ClockTime = 211 s

Time = 0.0026

Courant Number mean: 0.000509513 max: 0.0169415
DILUPBiCG:  Solving for Ux, Initial residual = 0.00188555, Final residual = 2.19665e-09, No Iterations 1
DILUPBiCG:  Solving for Uy, Initial residual = 0.00162861, Final residual = 1.83686e-09, No Iterations 1
DILUPBiCG:  Solving for Uz, Initial residual = 0.000400138, Final residual = 5.36437e-10, No Iterations 1
DICPCG:  Solving for p, Initial residual = 0.0184556, Final residual = 9.95472e-07, No Iterations 202
time step continuity errors : sum local = 2.88176e-12, global = -1.76781e-14, cumulative = -7.82229e-12
DICPCG:  Solving for p, Initial residual = 0.00195019, Final residual = 9.93954e-07, No Iterations 191
time step continuity errors : sum local = 2.84426e-12, global = -2.64581e-15, cumulative = -7.82494e-12
ExecutionTime = 33.29 s  ClockTime = 219 s

Time = 0.0027

Courant Number mean: 0.000509484 max: 0.0169353
DILUPBiCG:  Solving for Ux, Initial residual = 0.00182711, Final residual = 2.16831e-09, No Iterations 1
DILUPBiCG:  Solving for Uy, Initial residual = 0.00157743, Final residual = 1.81229e-09, No Iterations 1
DILUPBiCG:  Solving for Uz, Initial residual = 0.000386123, Final residual = 5.25066e-10, No Iterations 1
DICPCG:  Solving for p, Initial residual = 0.0176986, Final residual = 9.7943e-07, No Iterations 202
time step continuity errors : sum local = 2.75477e-12, global = -1.70102e-14, cumulative = -7.84195e-12
DICPCG:  Solving for p, Initial residual = 0.00183886, Final residual = 9.91307e-07, No Iterations 192
time step continuity errors : sum local = 2.75854e-12, global = -3.58678e-15, cumulative = -7.84553e-12
ExecutionTime = 34.52 s  ClockTime = 227 s

Time = 0.0028

Courant Number mean: 0.000509456 max: 0.0169292
DILUPBiCG:  Solving for Ux, Initial residual = 0.00177317, Final residual = 2.14212e-09, No Iterations 1
DILUPBiCG:  Solving for Uy, Initial residual = 0.00153026, Final residual = 1.79053e-09, No Iterations 1
DILUPBiCG:  Solving for Uz, Initial residual = 0.000373482, Final residual = 5.15322e-10, No Iterations 1
DICPCG:  Solving for p, Initial residual = 0.016971, Final residual = 9.96989e-07, No Iterations 202
time step continuity errors : sum local = 2.72876e-12, global = -1.55749e-14, cumulative = -7.86111e-12
DICPCG:  Solving for p, Initial residual = 0.00172347, Final residual = 9.41096e-07, No Iterations 191
time step continuity errors : sum local = 2.5492e-12, global = -6.94762e-15, cumulative = -7.86806e-12
ExecutionTime = 35.73 s  ClockTime = 235 s

Time = 0.0029

Courant Number mean: 0.000509428 max: 0.0169232
DILUPBiCG:  Solving for Ux, Initial residual = 0.00172338, Final residual = 2.11932e-09, No Iterations 1
DILUPBiCG:  Solving for Uy, Initial residual = 0.00148675, Final residual = 1.77155e-09, No Iterations 1
DILUPBiCG:  Solving for Uz, Initial residual = 0.000362058, Final residual = 5.07082e-10, No Iterations 1
DICPCG:  Solving for p, Initial residual = 0.0163027, Final residual = 9.69618e-07, No Iterations 199
time step continuity errors : sum local = 2.58496e-12, global = -1.24465e-14, cumulative = -7.8805e-12
DICPCG:  Solving for p, Initial residual = 0.00162496, Final residual = 9.65646e-07, No Iterations 190
time step continuity errors : sum local = 2.54832e-12, global = -6.14647e-15, cumulative = -7.88665e-12
ExecutionTime = 36.97 s  ClockTime = 243 s

Time = 0.003

Courant Number mean: 0.000509401 max: 0.0169172
DILUPBiCG:  Solving for Ux, Initial residual = 0.00167725, Final residual = 2.09869e-09, No Iterations 1
DILUPBiCG:  Solving for Uy, Initial residual = 0.0014464, Final residual = 1.75471e-09, No Iterations 1
DILUPBiCG:  Solving for Uz, Initial residual = 0.000351679, Final residual = 5.00023e-10, No Iterations 1
DICPCG:  Solving for p, Initial residual = 0.0157075, Final residual = 9.28379e-07, No Iterations 196
time step continuity errors : sum local = 2.41267e-12, global = -2.5964e-15, cumulative = -7.88925e-12
DICPCG:  Solving for p, Initial residual = 0.00154486, Final residual = 9.89061e-07, No Iterations 190
time step continuity errors : sum local = 2.54476e-12, global = -7.78986e-15, cumulative = -7.89704e-12
ExecutionTime = 38.17 s  ClockTime = 251 s

Time = 0.0031

Courant Number mean: 0.000509375 max: 0.0169114
DILUPBiCG:  Solving for Ux, Initial residual = 0.00163427, Final residual = 2.07915e-09, No Iterations 1
DILUPBiCG:  Solving for Uy, Initial residual = 0.00140889, Final residual = 1.73959e-09, No Iterations 1
DILUPBiCG:  Solving for Uz, Initial residual = 0.000342212, Final residual = 4.93865e-10, No Iterations 1
DICPCG:  Solving for p, Initial residual = 0.0151153, Final residual = 9.38785e-07, No Iterations 200
time step continuity errors : sum local = 2.38004e-12, global = -1.10636e-14, cumulative = -7.9081e-12
DICPCG:  Solving for p, Initial residual = 0.00145672, Final residual = 9.15446e-07, No Iterations 183
time step continuity errors : sum local = 2.29825e-12, global = 4.01168e-14, cumulative = -7.86798e-12
ExecutionTime = 39.38 s  ClockTime = 259 s

Time = 0.0032

Courant Number mean: 0.000509349 max: 0.0169055
DILUPBiCG:  Solving for Ux, Initial residual = 0.00159461, Final residual = 2.06211e-09, No Iterations 1
DILUPBiCG:  Solving for Uy, Initial residual = 0.00137401, Final residual = 1.72637e-09, No Iterations 1
DILUPBiCG:  Solving for Uz, Initial residual = 0.000333547, Final residual = 4.88657e-10, No Iterations 1
DICPCG:  Solving for p, Initial residual = 0.0145978, Final residual = 9.97176e-07, No Iterations 200
time step continuity errors : sum local = 2.46799e-12, global = -1.07679e-14, cumulative = -7.87875e-12
DICPCG:  Solving for p, Initial residual = 0.00138441, Final residual = 9.44735e-07, No Iterations 183
time step continuity errors : sum local = 2.31574e-12, global = 3.7945e-14, cumulative = -7.84081e-12
ExecutionTime = 40.57 s  ClockTime = 267 s

Time = 0.0033

Courant Number mean: 0.000509323 max: 0.0168997
DILUPBiCG:  Solving for Ux, Initial residual = 0.00155752, Final residual = 2.04616e-09, No Iterations 1
DILUPBiCG:  Solving for Uy, Initial residual = 0.00134148, Final residual = 1.71448e-09, No Iterations 1
DILUPBiCG:  Solving for Uz, Initial residual = 0.000325575, Final residual = 4.84065e-10, No Iterations 1
DICPCG:  Solving for p, Initial residual = 0.0141019, Final residual = 8.96871e-07, No Iterations 200
time step continuity errors : sum local = 2.16834e-12, global = -8.71535e-15, cumulative = -7.84952e-12
DICPCG:  Solving for p, Initial residual = 0.00131678, Final residual = 9.37902e-07, No Iterations 182
time step continuity errors : sum local = 2.24615e-12, global = 3.53092e-14, cumulative = -7.81421e-12
ExecutionTime = 41.77 s  ClockTime = 275 s

Time = 0.0034

Courant Number mean: 0.000509298 max: 0.016894
DILUPBiCG:  Solving for Ux, Initial residual = 0.0015229, Final residual = 2.03193e-09, No Iterations 1
DILUPBiCG:  Solving for Uy, Initial residual = 0.00131106, Final residual = 1.70379e-09, No Iterations 1
DILUPBiCG:  Solving for Uz, Initial residual = 0.000318243, Final residual = 4.79989e-10, No Iterations 1
DICPCG:  Solving for p, Initial residual = 0.0136256, Final residual = 9.73601e-07, No Iterations 199
time step continuity errors : sum local = 2.30081e-12, global = -7.94442e-15, cumulative = -7.82216e-12
DICPCG:  Solving for p, Initial residual = 0.00125216, Final residual = 9.7809e-07, No Iterations 181
time step continuity errors : sum local = 2.29003e-12, global = 4.01048e-14, cumulative = -7.78205e-12
ExecutionTime = 42.96 s  ClockTime = 283 s

Time = 0.0035

Courant Number mean: 0.000509273 max: 0.0168881
DILUPBiCG:  Solving for Ux, Initial residual = 0.00149048, Final residual = 2.01902e-09, No Iterations 1
DILUPBiCG:  Solving for Uy, Initial residual = 0.0012826, Final residual = 1.69425e-09, No Iterations 1
DILUPBiCG:  Solving for Uz, Initial residual = 0.000311478, Final residual = 4.76387e-10, No Iterations 1
DICPCG:  Solving for p, Initial residual = 0.0132001, Final residual = 9.26222e-07, No Iterations 199
time step continuity errors : sum local = 2.14083e-12, global = -6.57281e-15, cumulative = -7.78862e-12
DICPCG:  Solving for p, Initial residual = 0.00119786, Final residual = 9.12304e-07, No Iterations 181
time step continuity errors : sum local = 2.08947e-12, global = 3.63578e-14, cumulative = -7.75227e-12
ExecutionTime = 44.15 s  ClockTime = 290 s

Time = 0.0036

Courant Number mean: 0.000509248 max: 0.0168821
DILUPBiCG:  Solving for Ux, Initial residual = 0.00146005, Final residual = 2.00741e-09, No Iterations 1
DILUPBiCG:  Solving for Uy, Initial residual = 0.00125593, Final residual = 1.68585e-09, No Iterations 1
DILUPBiCG:  Solving for Uz, Initial residual = 0.000305206, Final residual = 4.73177e-10, No Iterations 1
DICPCG:  Solving for p, Initial residual = 0.0127846, Final residual = 9.66032e-07, No Iterations 198
time step continuity errors : sum local = 2.18508e-12, global = -5.5321e-15, cumulative = -7.7578e-12
DICPCG:  Solving for p, Initial residual = 0.00114367, Final residual = 9.81215e-07, No Iterations 180
time step continuity errors : sum local = 2.19958e-12, global = 3.83141e-14, cumulative = -7.71948e-12
ExecutionTime = 45.36 s  ClockTime = 298 s

Time = 0.0037

Courant Number mean: 0.000509224 max: 0.0168761
DILUPBiCG:  Solving for Ux, Initial residual = 0.00143148, Final residual = 1.99688e-09, No Iterations 1
DILUPBiCG:  Solving for Uy, Initial residual = 0.00123087, Final residual = 1.67827e-09, No Iterations 1
DILUPBiCG:  Solving for Uz, Initial residual = 0.000299396, Final residual = 4.7028e-10, No Iterations 1
DICPCG:  Solving for p, Initial residual = 0.0124103, Final residual = 8.96416e-07, No Iterations 199
time step continuity errors : sum local = 1.98529e-12, global = -4.45484e-15, cumulative = -7.72394e-12
DICPCG:  Solving for p, Initial residual = 0.00109583, Final residual = 9.09572e-07, No Iterations 180
time step continuity errors : sum local = 1.99671e-12, global = 2.86107e-14, cumulative = -7.69533e-12
ExecutionTime = 46.6 s  ClockTime = 307 s

Time = 0.0038

Courant Number mean: 0.000509201 max: 0.01687
DILUPBiCG:  Solving for Ux, Initial residual = 0.00140461, Final residual = 1.98716e-09, No Iterations 1
DILUPBiCG:  Solving for Uy, Initial residual = 0.00120727, Final residual = 1.67118e-09, No Iterations 1
DILUPBiCG:  Solving for Uz, Initial residual = 0.00029398, Final residual = 4.67629e-10, No Iterations 1
DICPCG:  Solving for p, Initial residual = 0.0120395, Final residual = 9.28887e-07, No Iterations 197
time step continuity errors : sum local = 2.0153e-12, global = -2.94116e-15, cumulative = -7.69827e-12
DICPCG:  Solving for p, Initial residual = 0.00105026, Final residual = 9.21292e-07, No Iterations 180
time step continuity errors : sum local = 1.98157e-12, global = 3.22367e-14, cumulative = -7.66603e-12
ExecutionTime = 47.77 s  ClockTime = 314 s

Time = 0.0039

Courant Number mean: 0.000509177 max: 0.0168638
DILUPBiCG:  Solving for Ux, Initial residual = 0.00137929, Final residual = 1.9781e-09, No Iterations 1
DILUPBiCG:  Solving for Uy, Initial residual = 0.00118504, Final residual = 1.6651e-09, No Iterations 1
DILUPBiCG:  Solving for Uz, Initial residual = 0.000288937, Final residual = 4.65186e-10, No Iterations 1
DICPCG:  Solving for p, Initial residual = 0.0116822, Final residual = 9.52972e-07, No Iterations 197
time step continuity errors : sum local = 2.02648e-12, global = -1.61843e-15, cumulative = -7.66765e-12
DICPCG:  Solving for p, Initial residual = 0.00100638, Final residual = 9.21676e-07, No Iterations 179
time step continuity errors : sum local = 1.94332e-12, global = 3.27194e-14, cumulative = -7.63493e-12
ExecutionTime = 49.01 s  ClockTime = 323 s

Time = 0.004

Courant Number mean: 0.000509154 max: 0.0168574
DILUPBiCG:  Solving for Ux, Initial residual = 0.00135538, Final residual = 1.96977e-09, No Iterations 1
DILUPBiCG:  Solving for Uy, Initial residual = 0.00116408, Final residual = 1.65945e-09, No Iterations 1
DILUPBiCG:  Solving for Uz, Initial residual = 0.000284239, Final residual = 4.62881e-10, No Iterations 1
DICPCG:  Solving for p, Initial residual = 0.0113594, Final residual = 9.79203e-07, No Iterations 195
time step continuity errors : sum local = 2.04187e-12, global = 1.91993e-15, cumulative = -7.63301e-12
DICPCG:  Solving for p, Initial residual = 0.000967394, Final residual = 9.11282e-07, No Iterations 179
time step continuity errors : sum local = 1.8844e-12, global = 3.43055e-14, cumulative = -7.59871e-12
ExecutionTime = 50.2 s  ClockTime = 330 s

Time = 0.0041

Courant Number mean: 0.000509131 max: 0.016851
DILUPBiCG:  Solving for Ux, Initial residual = 0.00133276, Final residual = 1.96231e-09, No Iterations 1
DILUPBiCG:  Solving for Uy, Initial residual = 0.00114427, Final residual = 1.65477e-09, No Iterations 1
DILUPBiCG:  Solving for Uz, Initial residual = 0.000279837, Final residual = 4.60668e-10, No Iterations 1
DICPCG:  Solving for p, Initial residual = 0.0110541, Final residual = 9.95665e-07, No Iterations 195
time step continuity errors : sum local = 2.03683e-12, global = 2.62528e-15, cumulative = -7.59608e-12
DICPCG:  Solving for p, Initial residual = 0.000931826, Final residual = 9.79206e-07, No Iterations 178
time step continuity errors : sum local = 1.98675e-12, global = 3.49871e-14, cumulative = -7.56109e-12
ExecutionTime = 51.37 s  ClockTime = 338 s

Time = 0.0042

Courant Number mean: 0.000509108 max: 0.0168445
DILUPBiCG:  Solving for Ux, Initial residual = 0.00131134, Final residual = 1.95528e-09, No Iterations 1
DILUPBiCG:  Solving for Uy, Initial residual = 0.00112552, Final residual = 1.65072e-09, No Iterations 1
DILUPBiCG:  Solving for Uz, Initial residual = 0.000275697, Final residual = 4.58523e-10, No Iterations 1
DICPCG:  Solving for p, Initial residual = 0.0107703, Final residual = 9.36823e-07, No Iterations 197
time step continuity errors : sum local = 1.88092e-12, global = 2.23457e-15, cumulative = -7.55886e-12
DICPCG:  Solving for p, Initial residual = 0.000898465, Final residual = 9.01758e-07, No Iterations 178
time step continuity errors : sum local = 1.79591e-12, global = 2.34385e-14, cumulative = -7.53542e-12
ExecutionTime = 52.54 s  ClockTime = 346 s

Time = 0.0043

Courant Number mean: 0.000509086 max: 0.016838
DILUPBiCG:  Solving for Ux, Initial residual = 0.00129107, Final residual = 1.94888e-09, No Iterations 1
DILUPBiCG:  Solving for Uy, Initial residual = 0.00110776, Final residual = 1.6471e-09, No Iterations 1
DILUPBiCG:  Solving for Uz, Initial residual = 0.000271813, Final residual = 4.56519e-10, No Iterations 1
DICPCG:  Solving for p, Initial residual = 0.0104864, Final residual = 8.98089e-07, No Iterations 194
time step continuity errors : sum local = 1.77043e-12, global = 3.79793e-15, cumulative = -7.53162e-12
DICPCG:  Solving for p, Initial residual = 0.000866089, Final residual = 9.66303e-07, No Iterations 177
time step continuity errors : sum local = 1.88979e-12, global = 2.65939e-14, cumulative = -7.50503e-12
ExecutionTime = 53.72 s  ClockTime = 353 s

Time = 0.0044

Courant Number mean: 0.000509064 max: 0.0168314
DILUPBiCG:  Solving for Ux, Initial residual = 0.00127188, Final residual = 1.94302e-09, No Iterations 1
DILUPBiCG:  Solving for Uy, Initial residual = 0.00109094, Final residual = 1.6442e-09, No Iterations 1
DILUPBiCG:  Solving for Uz, Initial residual = 0.000268159, Final residual = 4.54575e-10, No Iterations 1
DICPCG:  Solving for p, Initial residual = 0.0102251, Final residual = 9.93759e-07, No Iterations 193
time step continuity errors : sum local = 1.92424e-12, global = 5.1665e-16, cumulative = -7.50451e-12
DICPCG:  Solving for p, Initial residual = 0.000836181, Final residual = 9.21934e-07, No Iterations 177
time step continuity errors : sum local = 1.77124e-12, global = 2.64639e-14, cumulative = -7.47805e-12
ExecutionTime = 54.9 s  ClockTime = 361 s

Time = 0.0045

Courant Number mean: 0.000509042 max: 0.0168247
DILUPBiCG:  Solving for Ux, Initial residual = 0.00125364, Final residual = 1.93771e-09, No Iterations 1
DILUPBiCG:  Solving for Uy, Initial residual = 0.00107494, Final residual = 1.64141e-09, No Iterations 1
DILUPBiCG:  Solving for Uz, Initial residual = 0.000264705, Final residual = 4.52691e-10, No Iterations 1
DICPCG:  Solving for p, Initial residual = 0.00997422, Final residual = 9.33433e-07, No Iterations 193
time step continuity errors : sum local = 1.77601e-12, global = 1.81614e-16, cumulative = -7.47787e-12
DICPCG:  Solving for p, Initial residual = 0.000809764, Final residual = 9.49873e-07, No Iterations 176
time step continuity errors : sum local = 1.79342e-12, global = 2.30508e-14, cumulative = -7.45482e-12
ExecutionTime = 56.05 s  ClockTime = 369 s

Time = 0.0046

Courant Number mean: 0.00050902 max: 0.016818
DILUPBiCG:  Solving for Ux, Initial residual = 0.00123628, Final residual = 1.93288e-09, No Iterations 1
DILUPBiCG:  Solving for Uy, Initial residual = 0.00105974, Final residual = 1.63917e-09, No Iterations 1
DILUPBiCG:  Solving for Uz, Initial residual = 0.000261426, Final residual = 4.50827e-10, No Iterations 1
DICPCG:  Solving for p, Initial residual = 0.00973316, Final residual = 9.9218e-07, No Iterations 189
time step continuity errors : sum local = 1.85566e-12, global = 8.58528e-16, cumulative = -7.45396e-12
DICPCG:  Solving for p, Initial residual = 0.000783902, Final residual = 9.35988e-07, No Iterations 176
time step continuity errors : sum local = 1.73735e-12, global = 2.10909e-14, cumulative = -7.43287e-12
ExecutionTime = 57.26 s  ClockTime = 377 s

Time = 0.0047

Courant Number mean: 0.000508999 max: 0.0168112
DILUPBiCG:  Solving for Ux, Initial residual = 0.00121978, Final residual = 1.92853e-09, No Iterations 1
DILUPBiCG:  Solving for Uy, Initial residual = 0.00104526, Final residual = 1.63731e-09, No Iterations 1
DILUPBiCG:  Solving for Uz, Initial residual = 0.000258307, Final residual = 4.49001e-10, No Iterations 1
DICPCG:  Solving for p, Initial residual = 0.00949525, Final residual = 9.22444e-07, No Iterations 194
time step continuity errors : sum local = 1.69648e-12, global = -2.13378e-15, cumulative = -7.435e-12
DICPCG:  Solving for p, Initial residual = 0.000756999, Final residual = 9.61569e-07, No Iterations 176
time step continuity errors : sum local = 1.75531e-12, global = 1.93519e-14, cumulative = -7.41565e-12
ExecutionTime = 58.48 s  ClockTime = 385 s

Time = 0.0048

Courant Number mean: 0.000508978 max: 0.0168044
DILUPBiCG:  Solving for Ux, Initial residual = 0.00120409, Final residual = 1.92422e-09, No Iterations 1
DILUPBiCG:  Solving for Uy, Initial residual = 0.00103148, Final residual = 1.63576e-09, No Iterations 1
DILUPBiCG:  Solving for Uz, Initial residual = 0.000255343, Final residual = 4.47209e-10, No Iterations 1
DICPCG:  Solving for p, Initial residual = 0.00928876, Final residual = 9.96601e-07, No Iterations 190
time step continuity errors : sum local = 1.80293e-12, global = -2.51687e-15, cumulative = -7.41817e-12
DICPCG:  Solving for p, Initial residual = 0.000734919, Final residual = 8.90308e-07, No Iterations 176
time step continuity errors : sum local = 1.59885e-12, global = 1.68523e-14, cumulative = -7.40131e-12
ExecutionTime = 59.77 s  ClockTime = 393 s

Time = 0.0049

Courant Number mean: 0.000508957 max: 0.0167975
DILUPBiCG:  Solving for Ux, Initial residual = 0.00118912, Final residual = 1.92044e-09, No Iterations 1
DILUPBiCG:  Solving for Uy, Initial residual = 0.00101831, Final residual = 1.63507e-09, No Iterations 1
DILUPBiCG:  Solving for Uz, Initial residual = 0.00025251, Final residual = 4.45445e-10, No Iterations 1
DICPCG:  Solving for p, Initial residual = 0.00908502, Final residual = 9.60635e-07, No Iterations 194
time step continuity errors : sum local = 1.71001e-12, global = -4.40439e-15, cumulative = -7.40572e-12
DICPCG:  Solving for p, Initial residual = 0.000716236, Final residual = 9.482e-07, No Iterations 176
time step continuity errors : sum local = 1.6757e-12, global = 6.47035e-15, cumulative = -7.39925e-12
ExecutionTime = 60.95 s  ClockTime = 401 s

Time = 0.005

Courant Number mean: 0.000508936 max: 0.0167906
DILUPBiCG:  Solving for Ux, Initial residual = 0.00117484, Final residual = 1.91707e-09, No Iterations 1
DILUPBiCG:  Solving for Uy, Initial residual = 0.00100571, Final residual = 1.63411e-09, No Iterations 1
DILUPBiCG:  Solving for Uz, Initial residual = 0.00024981, Final residual = 4.43716e-10, No Iterations 1
DICPCG:  Solving for p, Initial residual = 0.00886802, Final residual = 9.38149e-07, No Iterations 193
time step continuity errors : sum local = 1.64375e-12, global = -6.3885e-15, cumulative = -7.40564e-12
DICPCG:  Solving for p, Initial residual = 0.000689969, Final residual = 8.67395e-07, No Iterations 176
time step continuity errors : sum local = 1.50902e-12, global = 1.47677e-14, cumulative = -7.39087e-12
ExecutionTime = 62.13 s  ClockTime = 409 s

Time = 0.0051

Courant Number mean: 0.000508915 max: 0.0167835
DILUPBiCG:  Solving for Ux, Initial residual = 0.00116118, Final residual = 1.91402e-09, No Iterations 1
DILUPBiCG:  Solving for Uy, Initial residual = 0.000993693, Final residual = 1.63325e-09, No Iterations 1
DILUPBiCG:  Solving for Uz, Initial residual = 0.000247242, Final residual = 4.4199e-10, No Iterations 1
DICPCG:  Solving for p, Initial residual = 0.00867045, Final residual = 9.5599e-07, No Iterations 191
time step continuity errors : sum local = 1.64923e-12, global = -7.30036e-15, cumulative = -7.39817e-12
DICPCG:  Solving for p, Initial residual = 0.000670227, Final residual = 9.31096e-07, No Iterations 175
time step continuity errors : sum local = 1.59509e-12, global = 1.59744e-14, cumulative = -7.38219e-12
ExecutionTime = 63.3 s  ClockTime = 416 s

Time = 0.0052

Courant Number mean: 0.000508895 max: 0.0167765
DILUPBiCG:  Solving for Ux, Initial residual = 0.00114813, Final residual = 1.91118e-09, No Iterations 1
DILUPBiCG:  Solving for Uy, Initial residual = 0.000982211, Final residual = 1.63273e-09, No Iterations 1
DILUPBiCG:  Solving for Uz, Initial residual = 0.000244789, Final residual = 4.40273e-10, No Iterations 1
DICPCG:  Solving for p, Initial residual = 0.0084799, Final residual = 9.66182e-07, No Iterations 191
time step continuity errors : sum local = 1.64165e-12, global = -7.33911e-15, cumulative = -7.38953e-12
DICPCG:  Solving for p, Initial residual = 0.000650121, Final residual = 8.86931e-07, No Iterations 175
time step continuity errors : sum local = 1.49665e-12, global = 1.53377e-14, cumulative = -7.3742e-12
ExecutionTime = 64.45 s  ClockTime = 424 s

Time = 0.0053

Courant Number mean: 0.000508874 max: 0.0167694
DILUPBiCG:  Solving for Ux, Initial residual = 0.00113565, Final residual = 1.90864e-09, No Iterations 1
DILUPBiCG:  Solving for Uy, Initial residual = 0.00097119, Final residual = 1.63222e-09, No Iterations 1
DILUPBiCG:  Solving for Uz, Initial residual = 0.00024245, Final residual = 4.38518e-10, No Iterations 1
DICPCG:  Solving for p, Initial residual = 0.00830213, Final residual = 9.68563e-07, No Iterations 191
time step continuity errors : sum local = 1.62132e-12, global = -7.58951e-15, cumulative = -7.38179e-12
DICPCG:  Solving for p, Initial residual = 0.000632982, Final residual = 9.58972e-07, No Iterations 174
time step continuity errors : sum local = 1.5944e-12, global = 1.33005e-14, cumulative = -7.36848e-12
ExecutionTime = 65.59 s  ClockTime = 432 s

Time = 0.0054

Courant Number mean: 0.000508854 max: 0.0167622
DILUPBiCG:  Solving for Ux, Initial residual = 0.00112369, Final residual = 1.90658e-09, No Iterations 1
DILUPBiCG:  Solving for Uy, Initial residual = 0.000960647, Final residual = 1.63216e-09, No Iterations 1
DILUPBiCG:  Solving for Uz, Initial residual = 0.000240209, Final residual = 4.36822e-10, No Iterations 1
DICPCG:  Solving for p, Initial residual = 0.00814349, Final residual = 9.90133e-07, No Iterations 190
time step continuity errors : sum local = 1.6333e-12, global = -8.70589e-15, cumulative = -7.37719e-12
DICPCG:  Solving for p, Initial residual = 0.000616626, Final residual = 9.90093e-07, No Iterations 174
time step continuity errors : sum local = 1.62231e-12, global = 1.43857e-14, cumulative = -7.3628e-12
ExecutionTime = 66.75 s  ClockTime = 439 s

Time = 0.0055

Courant Number mean: 0.000508834 max: 0.016755
DILUPBiCG:  Solving for Ux, Initial residual = 0.00111222, Final residual = 1.9044e-09, No Iterations 1
DILUPBiCG:  Solving for Uy, Initial residual = 0.000950495, Final residual = 1.63239e-09, No Iterations 1
DILUPBiCG:  Solving for Uz, Initial residual = 0.000238064, Final residual = 4.35092e-10, No Iterations 1
DICPCG:  Solving for p, Initial residual = 0.00796033, Final residual = 9.77602e-07, No Iterations 194
time step continuity errors : sum local = 1.58958e-12, global = -5.64344e-15, cumulative = -7.36845e-12
DICPCG:  Solving for p, Initial residual = 0.000598122, Final residual = 9.98403e-07, No Iterations 174
time step continuity errors : sum local = 1.61276e-12, global = 9.47874e-15, cumulative = -7.35897e-12
ExecutionTime = 67.91 s  ClockTime = 447 s

Time = 0.0056

Courant Number mean: 0.000508815 max: 0.0167478
DILUPBiCG:  Solving for Ux, Initial residual = 0.00110122, Final residual = 1.90236e-09, No Iterations 1
DILUPBiCG:  Solving for Uy, Initial residual = 0.000940781, Final residual = 1.63266e-09, No Iterations 1
DILUPBiCG:  Solving for Uz, Initial residual = 0.000236004, Final residual = 4.33346e-10, No Iterations 1
DICPCG:  Solving for p, Initial residual = 0.00780582, Final residual = 9.81512e-07, No Iterations 189
time step continuity errors : sum local = 1.57356e-12, global = -7.81702e-15, cumulative = -7.36679e-12
DICPCG:  Solving for p, Initial residual = 0.000583687, Final residual = 9.18173e-07, No Iterations 171
time step continuity errors : sum local = 1.46251e-12, global = 1.33465e-14, cumulative = -7.35344e-12
ExecutionTime = 69.06 s  ClockTime = 454 s

Time = 0.0057

Courant Number mean: 0.000508795 max: 0.0167405
DILUPBiCG:  Solving for Ux, Initial residual = 0.00109069, Final residual = 1.90072e-09, No Iterations 1
DILUPBiCG:  Solving for Uy, Initial residual = 0.000931443, Final residual = 1.63287e-09, No Iterations 1
DILUPBiCG:  Solving for Uz, Initial residual = 0.000234021, Final residual = 4.31603e-10, No Iterations 1
DICPCG:  Solving for p, Initial residual = 0.00765868, Final residual = 9.94915e-07, No Iterations 190
time step continuity errors : sum local = 1.57307e-12, global = -1.00937e-14, cumulative = -7.36353e-12
DICPCG:  Solving for p, Initial residual = 0.000570491, Final residual = 9.30538e-07, No Iterations 171
time step continuity errors : sum local = 1.46191e-12, global = 1.36469e-14, cumulative = -7.34989e-12
ExecutionTime = 70.22 s  ClockTime = 462 s

Time = 0.0058

Courant Number mean: 0.000508775 max: 0.0167332
DILUPBiCG:  Solving for Ux, Initial residual = 0.00108059, Final residual = 1.89926e-09, No Iterations 1
DILUPBiCG:  Solving for Uy, Initial residual = 0.000922478, Final residual = 1.63351e-09, No Iterations 1
DILUPBiCG:  Solving for Uz, Initial residual = 0.000232119, Final residual = 4.29886e-10, No Iterations 1
DICPCG:  Solving for p, Initial residual = 0.00751006, Final residual = 9.58725e-07, No Iterations 194
time step continuity errors : sum local = 1.49532e-12, global = -5.00391e-15, cumulative = -7.35489e-12
DICPCG:  Solving for p, Initial residual = 0.000556979, Final residual = 9.71525e-07, No Iterations 173
time step continuity errors : sum local = 1.50579e-12, global = 1.08747e-14, cumulative = -7.34402e-12
ExecutionTime = 71.42 s  ClockTime = 470 s

Time = 0.0059

Courant Number mean: 0.000508756 max: 0.0167258
DILUPBiCG:  Solving for Ux, Initial residual = 0.00107087, Final residual = 1.89802e-09, No Iterations 1
DILUPBiCG:  Solving for Uy, Initial residual = 0.000913854, Final residual = 1.63455e-09, No Iterations 1
DILUPBiCG:  Solving for Uz, Initial residual = 0.000230283, Final residual = 4.28148e-10, No Iterations 1
DICPCG:  Solving for p, Initial residual = 0.0073513, Final residual = 9.23784e-07, No Iterations 194
time step continuity errors : sum local = 1.42169e-12, global = -6.92486e-15, cumulative = -7.35094e-12
DICPCG:  Solving for p, Initial residual = 0.000541755, Final residual = 9.96855e-07, No Iterations 170
time step continuity errors : sum local = 1.52467e-12, global = 6.27135e-15, cumulative = -7.34467e-12
ExecutionTime = 72.61 s  ClockTime = 478 s

Time = 0.006

Courant Number mean: 0.000508737 max: 0.0167185
DILUPBiCG:  Solving for Ux, Initial residual = 0.00106153, Final residual = 1.89694e-09, No Iterations 1
DILUPBiCG:  Solving for Uy, Initial residual = 0.000905556, Final residual = 1.63549e-09, No Iterations 1
DILUPBiCG:  Solving for Uz, Initial residual = 0.000228514, Final residual = 4.26416e-10, No Iterations 1
DICPCG:  Solving for p, Initial residual = 0.00721841, Final residual = 9.49671e-07, No Iterations 191
time step continuity errors : sum local = 1.44245e-12, global = -1.00911e-14, cumulative = -7.35476e-12
DICPCG:  Solving for p, Initial residual = 0.000529154, Final residual = 9.14834e-07, No Iterations 172
time step continuity errors : sum local = 1.38108e-12, global = 1.5399e-14, cumulative = -7.33936e-12
ExecutionTime = 73.8 s  ClockTime = 486 s

Time = 0.0061

Courant Number mean: 0.000508717 max: 0.016711
DILUPBiCG:  Solving for Ux, Initial residual = 0.00105255, Final residual = 1.89597e-09, No Iterations 1
DILUPBiCG:  Solving for Uy, Initial residual = 0.00089758, Final residual = 1.63614e-09, No Iterations 1
DILUPBiCG:  Solving for Uz, Initial residual = 0.000226815, Final residual = 4.24662e-10, No Iterations 1
DICPCG:  Solving for p, Initial residual = 0.00710109, Final residual = 9.86748e-07, No Iterations 192
time step continuity errors : sum local = 1.47951e-12, global = -1.10611e-14, cumulative = -7.35042e-12
DICPCG:  Solving for p, Initial residual = 0.000519458, Final residual = 9.74333e-07, No Iterations 172
time step continuity errors : sum local = 1.45211e-12, global = 1.50981e-14, cumulative = -7.33532e-12
ExecutionTime = 75.04 s  ClockTime = 494 s

Time = 0.0062

Courant Number mean: 0.000508698 max: 0.0167036
DILUPBiCG:  Solving for Ux, Initial residual = 0.00104391, Final residual = 1.89523e-09, No Iterations 1
DILUPBiCG:  Solving for Uy, Initial residual = 0.000889934, Final residual = 1.63706e-09, No Iterations 1
DILUPBiCG:  Solving for Uz, Initial residual = 0.000225176, Final residual = 4.22912e-10, No Iterations 1
DICPCG:  Solving for p, Initial residual = 0.00697249, Final residual = 9.84696e-07, No Iterations 193
time step continuity errors : sum local = 1.45776e-12, global = -1.16676e-14, cumulative = -7.34699e-12
DICPCG:  Solving for p, Initial residual = 0.000507937, Final residual = 9.49109e-07, No Iterations 172
time step continuity errors : sum local = 1.39675e-12, global = 8.52785e-15, cumulative = -7.33846e-12
ExecutionTime = 76.28 s  ClockTime = 502 s

Time = 0.0063

Courant Number mean: 0.000508679 max: 0.0166961
DILUPBiCG:  Solving for Ux, Initial residual = 0.00103557, Final residual = 1.89484e-09, No Iterations 1
DILUPBiCG:  Solving for Uy, Initial residual = 0.000882541, Final residual = 1.63806e-09, No Iterations 1
DILUPBiCG:  Solving for Uz, Initial residual = 0.000223585, Final residual = 4.21178e-10, No Iterations 1
DICPCG:  Solving for p, Initial residual = 0.00683567, Final residual = 9.70579e-07, No Iterations 188
time step continuity errors : sum local = 1.41899e-12, global = -8.18277e-15, cumulative = -7.34665e-12
DICPCG:  Solving for p, Initial residual = 0.000494344, Final residual = 8.87801e-07, No Iterations 171
time step continuity errors : sum local = 1.29039e-12, global = 1.24934e-14, cumulative = -7.33415e-12
ExecutionTime = 77.44 s  ClockTime = 509 s

Time = 0.0064

Courant Number mean: 0.000508661 max: 0.0166886
DILUPBiCG:  Solving for Ux, Initial residual = 0.00102756, Final residual = 1.89454e-09, No Iterations 1
DILUPBiCG:  Solving for Uy, Initial residual = 0.000875406, Final residual = 1.63914e-09, No Iterations 1
DILUPBiCG:  Solving for Uz, Initial residual = 0.000222048, Final residual = 4.19454e-10, No Iterations 1
DICPCG:  Solving for p, Initial residual = 0.00671192, Final residual = 9.70714e-07, No Iterations 191
time step continuity errors : sum local = 1.40184e-12, global = -1.35611e-14, cumulative = -7.34771e-12
DICPCG:  Solving for p, Initial residual = 0.000483013, Final residual = 9.95202e-07, No Iterations 170
time step continuity errors : sum local = 1.42893e-12, global = 1.21698e-14, cumulative = -7.33555e-12
ExecutionTime = 78.57 s  ClockTime = 517 s

Time = 0.0065

Courant Number mean: 0.000508642 max: 0.0166811
DILUPBiCG:  Solving for Ux, Initial residual = 0.00101982, Final residual = 1.89447e-09, No Iterations 1
DILUPBiCG:  Solving for Uy, Initial residual = 0.000868534, Final residual = 1.64044e-09, No Iterations 1
DILUPBiCG:  Solving for Uz, Initial residual = 0.000220559, Final residual = 4.17732e-10, No Iterations 1
DICPCG:  Solving for p, Initial residual = 0.00659888, Final residual = 9.68898e-07, No Iterations 190
time step continuity errors : sum local = 1.38238e-12, global = -9.9335e-15, cumulative = -7.34548e-12
DICPCG:  Solving for p, Initial residual = 0.0004741, Final residual = 8.94074e-07, No Iterations 170
time step continuity errors : sum local = 1.26837e-12, global = 5.63313e-15, cumulative = -7.33985e-12
ExecutionTime = 79.75 s  ClockTime = 524 s

Time = 0.0066

Courant Number mean: 0.000508623 max: 0.0166736
DILUPBiCG:  Solving for Ux, Initial residual = 0.00101236, Final residual = 1.89444e-09, No Iterations 1
DILUPBiCG:  Solving for Uy, Initial residual = 0.000861911, Final residual = 1.64168e-09, No Iterations 1
DILUPBiCG:  Solving for Uz, Initial residual = 0.000219117, Final residual = 4.16032e-10, No Iterations 1
DICPCG:  Solving for p, Initial residual = 0.00649688, Final residual = 9.35743e-07, No Iterations 189
time step continuity errors : sum local = 1.31924e-12, global = -7.87336e-15, cumulative = -7.34772e-12
DICPCG:  Solving for p, Initial residual = 0.000466204, Final residual = 9.26571e-07, No Iterations 171
time step continuity errors : sum local = 1.29896e-12, global = 1.65011e-14, cumulative = -7.33122e-12
ExecutionTime = 80.82 s  ClockTime = 532 s

Time = 0.0067

Courant Number mean: 0.000508605 max: 0.016666
DILUPBiCG:  Solving for Ux, Initial residual = 0.00100514, Final residual = 1.89473e-09, No Iterations 1
DILUPBiCG:  Solving for Uy, Initial residual = 0.000855519, Final residual = 1.64292e-09, No Iterations 1
DILUPBiCG:  Solving for Uz, Initial residual = 0.000217717, Final residual = 4.14347e-10, No Iterations 1
DICPCG:  Solving for p, Initial residual = 0.0063724, Final residual = 9.76112e-07, No Iterations 192
time step continuity errors : sum local = 1.36009e-12, global = -1.5319e-14, cumulative = -7.34654e-12
DICPCG:  Solving for p, Initial residual = 0.000453488, Final residual = 9.80527e-07, No Iterations 170
time step continuity errors : sum local = 1.35869e-12, global = 1.1205e-14, cumulative = -7.33533e-12
ExecutionTime = 81.87 s  ClockTime = 539 s

Time = 0.0068

Courant Number mean: 0.000508587 max: 0.0166584
DILUPBiCG:  Solving for Ux, Initial residual = 0.000998147, Final residual = 1.89494e-09, No Iterations 1
DILUPBiCG:  Solving for Uy, Initial residual = 0.000849301, Final residual = 1.64437e-09, No Iterations 1
DILUPBiCG:  Solving for Uz, Initial residual = 0.000216365, Final residual = 4.12665e-10, No Iterations 1
DICPCG:  Solving for p, Initial residual = 0.00626431, Final residual = 9.1534e-07, No Iterations 189
time step continuity errors : sum local = 1.26079e-12, global = -1.07311e-14, cumulative = -7.34606e-12
DICPCG:  Solving for p, Initial residual = 0.000445148, Final residual = 9.69518e-07, No Iterations 170
time step continuity errors : sum local = 1.32814e-12, global = 1.29011e-14, cumulative = -7.33316e-12
ExecutionTime = 82.93 s  ClockTime = 546 s

Time = 0.0069

Courant Number mean: 0.000508568 max: 0.0166509
DILUPBiCG:  Solving for Ux, Initial residual = 0.000991402, Final residual = 1.8952e-09, No Iterations 1
DILUPBiCG:  Solving for Uy, Initial residual = 0.000843276, Final residual = 1.64592e-09, No Iterations 1
DILUPBiCG:  Solving for Uz, Initial residual = 0.00021505, Final residual = 4.10992e-10, No Iterations 1
DICPCG:  Solving for p, Initial residual = 0.00615898, Final residual = 9.76329e-07, No Iterations 190
time step continuity errors : sum local = 1.32963e-12, global = -1.48491e-14, cumulative = -7.34801e-12
DICPCG:  Solving for p, Initial residual = 0.000436797, Final residual = 9.07958e-07, No Iterations 170
time step continuity errors : sum local = 1.22986e-12, global = 1.13133e-14, cumulative = -7.3367e-12
ExecutionTime = 84.01 s  ClockTime = 553 s

Time = 0.007

Courant Number mean: 0.00050855 max: 0.0166432
DILUPBiCG:  Solving for Ux, Initial residual = 0.000984856, Final residual = 1.89552e-09, No Iterations 1
DILUPBiCG:  Solving for Uy, Initial residual = 0.000837452, Final residual = 1.64762e-09, No Iterations 1
DILUPBiCG:  Solving for Uz, Initial residual = 0.00021377, Final residual = 4.09326e-10, No Iterations 1
DICPCG:  Solving for p, Initial residual = 0.00606074, Final residual = 9.59409e-07, No Iterations 188
time step continuity errors : sum local = 1.29206e-12, global = -1.19359e-14, cumulative = -7.34863e-12
DICPCG:  Solving for p, Initial residual = 0.000429491, Final residual = 9.79782e-07, No Iterations 170
time step continuity errors : sum local = 1.31249e-12, global = 1.03078e-14, cumulative = -7.33833e-12
ExecutionTime = 85.09 s  ClockTime = 560 s

Time = 0.0071

Courant Number mean: 0.000508532 max: 0.0166356
DILUPBiCG:  Solving for Ux, Initial residual = 0.000978499, Final residual = 1.89596e-09, No Iterations 1
DILUPBiCG:  Solving for Uy, Initial residual = 0.000831814, Final residual = 1.64943e-09, No Iterations 1
DILUPBiCG:  Solving for Uz, Initial residual = 0.000212522, Final residual = 4.07667e-10, No Iterations 1
DICPCG:  Solving for p, Initial residual = 0.00595441, Final residual = 9.64186e-07, No Iterations 189
time step continuity errors : sum local = 1.28429e-12, global = -1.48336e-14, cumulative = -7.35316e-12
DICPCG:  Solving for p, Initial residual = 0.00041801, Final residual = 8.91911e-07, No Iterations 170
time step continuity errors : sum local = 1.18179e-12, global = 1.11158e-14, cumulative = -7.34204e-12
ExecutionTime = 86.13 s  ClockTime = 567 s

Time = 0.0072

Courant Number mean: 0.000508514 max: 0.016628
DILUPBiCG:  Solving for Ux, Initial residual = 0.000972373, Final residual = 1.89658e-09, No Iterations 1
DILUPBiCG:  Solving for Uy, Initial residual = 0.000826367, Final residual = 1.65128e-09, No Iterations 1
DILUPBiCG:  Solving for Uz, Initial residual = 0.000211305, Final residual = 4.06025e-10, No Iterations 1
DICPCG:  Solving for p, Initial residual = 0.00586298, Final residual = 9.6847e-07, No Iterations 188
time step continuity errors : sum local = 1.27608e-12, global = -1.44394e-14, cumulative = -7.35648e-12
DICPCG:  Solving for p, Initial residual = 0.000409901, Final residual = 9.66235e-07, No Iterations 170
time step continuity errors : sum local = 1.26655e-12, global = 9.99837e-15, cumulative = -7.34648e-12
ExecutionTime = 87.2 s  ClockTime = 574 s

Time = 0.0073

Courant Number mean: 0.000508496 max: 0.0166203
DILUPBiCG:  Solving for Ux, Initial residual = 0.000966444, Final residual = 1.89726e-09, No Iterations 1
DILUPBiCG:  Solving for Uy, Initial residual = 0.000821097, Final residual = 1.65321e-09, No Iterations 1
DILUPBiCG:  Solving for Uz, Initial residual = 0.000210118, Final residual = 4.04393e-10, No Iterations 1
DICPCG:  Solving for p, Initial residual = 0.005775, Final residual = 9.17937e-07, No Iterations 189
time step continuity errors : sum local = 1.19664e-12, global = -1.4655e-14, cumulative = -7.36114e-12
DICPCG:  Solving for p, Initial residual = 0.000403611, Final residual = 9.03262e-07, No Iterations 170
time step continuity errors : sum local = 1.17148e-12, global = 9.0034e-15, cumulative = -7.35214e-12
ExecutionTime = 88.26 s  ClockTime = 581 s

Time = 0.0074

Courant Number mean: 0.000508478 max: 0.0166127
DILUPBiCG:  Solving for Ux, Initial residual = 0.000960699, Final residual = 1.89812e-09, No Iterations 1
DILUPBiCG:  Solving for Uy, Initial residual = 0.000815991, Final residual = 1.65524e-09, No Iterations 1
DILUPBiCG:  Solving for Uz, Initial residual = 0.000208963, Final residual = 4.02777e-10, No Iterations 1
DICPCG:  Solving for p, Initial residual = 0.00568055, Final residual = 9.13452e-07, No Iterations 189
time step continuity errors : sum local = 1.17832e-12, global = -1.60557e-14, cumulative = -7.36819e-12
DICPCG:  Solving for p, Initial residual = 0.000396312, Final residual = 9.23259e-07, No Iterations 170
time step continuity errors : sum local = 1.18497e-12, global = 7.52406e-15, cumulative = -7.36067e-12
ExecutionTime = 89.43 s  ClockTime = 588 s

Time = 0.0075

Courant Number mean: 0.00050846 max: 0.016605
DILUPBiCG:  Solving for Ux, Initial residual = 0.00095513, Final residual = 1.89899e-09, No Iterations 1
DILUPBiCG:  Solving for Uy, Initial residual = 0.000811015, Final residual = 1.65733e-09, No Iterations 1
DILUPBiCG:  Solving for Uz, Initial residual = 0.000207843, Final residual = 4.01166e-10, No Iterations 1
DICPCG:  Solving for p, Initial residual = 0.00559451, Final residual = 9.28138e-07, No Iterations 189
time step continuity errors : sum local = 1.18491e-12, global = -1.46686e-14, cumulative = -7.37534e-12
DICPCG:  Solving for p, Initial residual = 0.000389906, Final residual = 9.03978e-07, No Iterations 170
time step continuity errors : sum local = 1.14831e-12, global = 8.4421e-15, cumulative = -7.36689e-12
ExecutionTime = 90.53 s  ClockTime = 596 s

Time = 0.0076

Courant Number mean: 0.000508443 max: 0.0165973
DILUPBiCG:  Solving for Ux, Initial residual = 0.000949718, Final residual = 1.90008e-09, No Iterations 1
DILUPBiCG:  Solving for Uy, Initial residual = 0.000806189, Final residual = 1.65959e-09, No Iterations 1
DILUPBiCG:  Solving for Uz, Initial residual = 0.000206747, Final residual = 3.99579e-10, No Iterations 1
DICPCG:  Solving for p, Initial residual = 0.00550033, Final residual = 9.53422e-07, No Iterations 188
time step continuity errors : sum local = 1.20481e-12, global = -1.47688e-14, cumulative = -7.38166e-12
DICPCG:  Solving for p, Initial residual = 0.00038177, Final residual = 9.12035e-07, No Iterations 170
time step continuity errors : sum local = 1.14685e-12, global = 4.89964e-15, cumulative = -7.37676e-12
ExecutionTime = 91.59 s  ClockTime = 602 s

Time = 0.0077

Courant Number mean: 0.000508425 max: 0.0165896
DILUPBiCG:  Solving for Ux, Initial residual = 0.000944484, Final residual = 1.90108e-09, No Iterations 1
DILUPBiCG:  Solving for Uy, Initial residual = 0.000801512, Final residual = 1.66188e-09, No Iterations 1
DILUPBiCG:  Solving for Uz, Initial residual = 0.000205679, Final residual = 3.98002e-10, No Iterations 1
DICPCG:  Solving for p, Initial residual = 0.00542355, Final residual = 9.19936e-07, No Iterations 189
time step continuity errors : sum local = 1.15085e-12, global = -1.64497e-14, cumulative = -7.39321e-12
DICPCG:  Solving for p, Initial residual = 0.000374942, Final residual = 9.96991e-07, No Iterations 169
time step continuity errors : sum local = 1.24119e-12, global = 6.20908e-15, cumulative = -7.387e-12
ExecutionTime = 92.63 s  ClockTime = 609 s

Time = 0.0078

Courant Number mean: 0.000508407 max: 0.0165819
DILUPBiCG:  Solving for Ux, Initial residual = 0.000939406, Final residual = 1.90226e-09, No Iterations 1
DILUPBiCG:  Solving for Uy, Initial residual = 0.000796976, Final residual = 1.66426e-09, No Iterations 1
DILUPBiCG:  Solving for Uz, Initial residual = 0.000204635, Final residual = 3.9644e-10, No Iterations 1
DICPCG:  Solving for p, Initial residual = 0.00533857, Final residual = 9.80355e-07, No Iterations 187
time step continuity errors : sum local = 1.21432e-12, global = -1.57138e-14, cumulative = -7.40272e-12
DICPCG:  Solving for p, Initial residual = 0.000368393, Final residual = 9.47038e-07, No Iterations 170
time step continuity errors : sum local = 1.16744e-12, global = 2.5579e-15, cumulative = -7.40016e-12
ExecutionTime = 93.71 s  ClockTime = 616 s

Time = 0.0079

Courant Number mean: 0.00050839 max: 0.0165742
DILUPBiCG:  Solving for Ux, Initial residual = 0.000934476, Final residual = 1.90344e-09, No Iterations 1
DILUPBiCG:  Solving for Uy, Initial residual = 0.000792575, Final residual = 1.66667e-09, No Iterations 1
DILUPBiCG:  Solving for Uz, Initial residual = 0.000203618, Final residual = 3.94885e-10, No Iterations 1
DICPCG:  Solving for p, Initial residual = 0.00526483, Final residual = 9.92505e-07, No Iterations 187
time step continuity errors : sum local = 1.21742e-12, global = -1.31145e-14, cumulative = -7.41327e-12
DICPCG:  Solving for p, Initial residual = 0.000363505, Final residual = 9.60107e-07, No Iterations 170
time step continuity errors : sum local = 1.17212e-12, global = 9.02353e-15, cumulative = -7.40425e-12
ExecutionTime = 94.81 s  ClockTime = 624 s

Time = 0.008

Courant Number mean: 0.000508372 max: 0.0165665
DILUPBiCG:  Solving for Ux, Initial residual = 0.000929686, Final residual = 1.90481e-09, No Iterations 1
DILUPBiCG:  Solving for Uy, Initial residual = 0.000788294, Final residual = 1.66913e-09, No Iterations 1
DILUPBiCG:  Solving for Uz, Initial residual = 0.000202624, Final residual = 3.93342e-10, No Iterations 1
DICPCG:  Solving for p, Initial residual = 0.00518655, Final residual = 9.55724e-07, No Iterations 187
time step continuity errors : sum local = 1.16106e-12, global = -1.47523e-14, cumulative = -7.419e-12
DICPCG:  Solving for p, Initial residual = 0.000357515, Final residual = 9.17409e-07, No Iterations 170
time step continuity errors : sum local = 1.10931e-12, global = 3.61109e-15, cumulative = -7.41539e-12
ExecutionTime = 96.01 s  ClockTime = 632 s

Time = 0.0081

Courant Number mean: 0.000508355 max: 0.0165587
DILUPBiCG:  Solving for Ux, Initial residual = 0.000925029, Final residual = 1.90611e-09, No Iterations 1
DILUPBiCG:  Solving for Uy, Initial residual = 0.000784123, Final residual = 1.67174e-09, No Iterations 1
DILUPBiCG:  Solving for Uz, Initial residual = 0.000201652, Final residual = 3.91814e-10, No Iterations 1
DICPCG:  Solving for p, Initial residual = 0.00513029, Final residual = 9.63162e-07, No Iterations 188
time step continuity errors : sum local = 1.15901e-12, global = -1.54732e-14, cumulative = -7.43087e-12
DICPCG:  Solving for p, Initial residual = 0.000359368, Final residual = 9.03059e-07, No Iterations 170
time step continuity errors : sum local = 1.08165e-12, global = 9.85929e-15, cumulative = -7.42101e-12
ExecutionTime = 97.12 s  ClockTime = 639 s

Time = 0.0082

Courant Number mean: 0.000508338 max: 0.016551
DILUPBiCG:  Solving for Ux, Initial residual = 0.000920436, Final residual = 1.90722e-09, No Iterations 1
DILUPBiCG:  Solving for Uy, Initial residual = 0.000780051, Final residual = 1.67462e-09, No Iterations 1
DILUPBiCG:  Solving for Uz, Initial residual = 0.000200696, Final residual = 3.9029e-10, No Iterations 1
DICPCG:  Solving for p, Initial residual = 0.00504854, Final residual = 9.64341e-07, No Iterations 187
time step continuity errors : sum local = 1.14956e-12, global = -1.6728e-14, cumulative = -7.43773e-12
DICPCG:  Solving for p, Initial residual = 0.000349062, Final residual = 9.8668e-07, No Iterations 169
time step continuity errors : sum local = 1.17081e-12, global = 1.01644e-14, cumulative = -7.42757e-12
ExecutionTime = 98.38 s  ClockTime = 647 s

Time = 0.0083

Courant Number mean: 0.000508321 max: 0.0165432
DILUPBiCG:  Solving for Ux, Initial residual = 0.000916013, Final residual = 1.90862e-09, No Iterations 1
DILUPBiCG:  Solving for Uy, Initial residual = 0.000776091, Final residual = 1.67732e-09, No Iterations 1
DILUPBiCG:  Solving for Uz, Initial residual = 0.000199764, Final residual = 3.88784e-10, No Iterations 1
DICPCG:  Solving for p, Initial residual = 0.00499256, Final residual = 9.98341e-07, No Iterations 187
time step continuity errors : sum local = 1.17909e-12, global = -1.76838e-14, cumulative = -7.44525e-12
DICPCG:  Solving for p, Initial residual = 0.000350598, Final residual = 8.98198e-07, No Iterations 170
time step continuity errors : sum local = 1.05601e-12, global = 9.29201e-15, cumulative = -7.43596e-12
ExecutionTime = 99.45 s  ClockTime = 654 s

Time = 0.0084

Courant Number mean: 0.000508303 max: 0.0165355
DILUPBiCG:  Solving for Ux, Initial residual = 0.000911654, Final residual = 1.90991e-09, No Iterations 1
DILUPBiCG:  Solving for Uy, Initial residual = 0.000772225, Final residual = 1.68039e-09, No Iterations 1
DILUPBiCG:  Solving for Uz, Initial residual = 0.00019885, Final residual = 3.87291e-10, No Iterations 1
DICPCG:  Solving for p, Initial residual = 0.00489759, Final residual = 9.8224e-07, No Iterations 186
time step continuity errors : sum local = 1.14951e-12, global = -2.07406e-14, cumulative = -7.4567e-12
DICPCG:  Solving for p, Initial residual = 0.000335215, Final residual = 8.88271e-07, No Iterations 170
time step continuity errors : sum local = 1.0349e-12, global = -1.43029e-15, cumulative = -7.45813e-12
ExecutionTime = 100.63 s  ClockTime = 662 s

Time = 0.0085

Courant Number mean: 0.000508286 max: 0.0165277
DILUPBiCG:  Solving for Ux, Initial residual = 0.000907496, Final residual = 1.91183e-09, No Iterations 1
DILUPBiCG:  Solving for Uy, Initial residual = 0.000768479, Final residual = 1.68323e-09, No Iterations 1
DILUPBiCG:  Solving for Uz, Initial residual = 0.000197957, Final residual = 3.85813e-10, No Iterations 1
DICPCG:  Solving for p, Initial residual = 0.0048222, Final residual = 9.99725e-07, No Iterations 70
time step continuity errors : sum local = 1.15949e-12, global = -1.57758e-13, cumulative = -7.61589e-12
DICPCG:  Solving for p, Initial residual = 0.000329083, Final residual = 9.59518e-07, No Iterations 65
time step continuity errors : sum local = 1.10789e-12, global = 8.02517e-14, cumulative = -7.53564e-12
ExecutionTime = 101.23 s  ClockTime = 666 s

Time = 0.0086

Courant Number mean: 0.000508269 max: 0.0165199
DILUPBiCG:  Solving for Ux, Initial residual = 0.000903426, Final residual = 1.9137e-09, No Iterations 1
DILUPBiCG:  Solving for Uy, Initial residual = 0.000764812, Final residual = 1.68616e-09, No Iterations 1
DILUPBiCG:  Solving for Uz, Initial residual = 0.000197088, Final residual = 3.84334e-10, No Iterations 1
DICPCG:  Solving for p, Initial residual = 0.00475239, Final residual = 9.81939e-07, No Iterations 68
time step continuity errors : sum local = 1.12883e-12, global = 3.39706e-14, cumulative = -7.50167e-12
DICPCG:  Solving for p, Initial residual = 0.000325819, Final residual = 9.32545e-07, No Iterations 171
time step continuity errors : sum local = 1.06734e-12, global = 8.50848e-15, cumulative = -7.49316e-12
ExecutionTime = 102.09 s  ClockTime = 671 s

Time = 0.0087

Courant Number mean: 0.000508252 max: 0.0165121
DILUPBiCG:  Solving for Ux, Initial residual = 0.000899507, Final residual = 1.91561e-09, No Iterations 1
DILUPBiCG:  Solving for Uy, Initial residual = 0.000761289, Final residual = 1.68914e-09, No Iterations 1
DILUPBiCG:  Solving for Uz, Initial residual = 0.000196216, Final residual = 3.82895e-10, No Iterations 1
DICPCG:  Solving for p, Initial residual = 0.00468882, Final residual = 9.26682e-07, No Iterations 67
time step continuity errors : sum local = 1.05597e-12, global = -1.58274e-13, cumulative = -7.65143e-12
DICPCG:  Solving for p, Initial residual = 0.00031861, Final residual = 9.93715e-07, No Iterations 61
time step continuity errors : sum local = 1.12746e-12, global = 6.37833e-14, cumulative = -7.58765e-12
ExecutionTime = 102.62 s  ClockTime = 675 s

Time = 0.0088

Courant Number mean: 0.000508235 max: 0.0165043
DILUPBiCG:  Solving for Ux, Initial residual = 0.000895631, Final residual = 1.9175e-09, No Iterations 1
DILUPBiCG:  Solving for Uy, Initial residual = 0.000757807, Final residual = 1.69225e-09, No Iterations 1
DILUPBiCG:  Solving for Uz, Initial residual = 0.000195385, Final residual = 3.81433e-10, No Iterations 1
DICPCG:  Solving for p, Initial residual = 0.00462065, Final residual = 9.96655e-07, No Iterations 67
time step continuity errors : sum local = 1.126e-12, global = 7.74244e-14, cumulative = -7.51023e-12
DICPCG:  Solving for p, Initial residual = 0.000314161, Final residual = 9.05655e-07, No Iterations 171
time step continuity errors : sum local = 1.01883e-12, global = 4.63589e-15, cumulative = -7.50559e-12
ExecutionTime = 103.44 s  ClockTime = 680 s

Time = 0.0089

Courant Number mean: 0.000508219 max: 0.0164965
DILUPBiCG:  Solving for Ux, Initial residual = 0.000891916, Final residual = 1.91941e-09, No Iterations 1
DILUPBiCG:  Solving for Uy, Initial residual = 0.000754462, Final residual = 1.6954e-09, No Iterations 1
DILUPBiCG:  Solving for Uz, Initial residual = 0.000194545, Final residual = 3.80004e-10, No Iterations 1
DICPCG:  Solving for p, Initial residual = 0.00456879, Final residual = 9.78582e-07, No Iterations 65
time step continuity errors : sum local = 1.09614e-12, global = -8.60827e-14, cumulative = -7.59167e-12
DICPCG:  Solving for p, Initial residual = 0.000310413, Final residual = 9.81142e-07, No Iterations 60
time step continuity errors : sum local = 1.09439e-12, global = 1.19418e-13, cumulative = -7.47225e-12
ExecutionTime = 103.97 s  ClockTime = 684 s

Time = 0.009

Courant Number mean: 0.000508202 max: 0.0164887
DILUPBiCG:  Solving for Ux, Initial residual = 0.000888223, Final residual = 1.92144e-09, No Iterations 1
DILUPBiCG:  Solving for Uy, Initial residual = 0.000751145, Final residual = 1.69863e-09, No Iterations 1
DILUPBiCG:  Solving for Uz, Initial residual = 0.000193749, Final residual = 3.78559e-10, No Iterations 1
DICPCG:  Solving for p, Initial residual = 0.00450192, Final residual = 9.76584e-07, No Iterations 184
time step continuity errors : sum local = 1.08481e-12, global = -9.80536e-15, cumulative = -7.48206e-12
DICPCG:  Solving for p, Initial residual = 0.000307231, Final residual = 9.90929e-07, No Iterations 60
time step continuity errors : sum local = 1.09608e-12, global = 1.82191e-13, cumulative = -7.29987e-12
ExecutionTime = 104.84 s  ClockTime = 690 s

Time = 0.0091

Courant Number mean: 0.000508185 max: 0.0164809
DILUPBiCG:  Solving for Ux, Initial residual = 0.00088466, Final residual = 1.92358e-09, No Iterations 1
DILUPBiCG:  Solving for Uy, Initial residual = 0.000747947, Final residual = 1.70194e-09, No Iterations 1
DILUPBiCG:  Solving for Uz, Initial residual = 0.000192947, Final residual = 3.77153e-10, No Iterations 1
DICPCG:  Solving for p, Initial residual = 0.0044438, Final residual = 9.72746e-07, No Iterations 181
time step continuity errors : sum local = 1.07159e-12, global = -9.58097e-15, cumulative = -7.30945e-12
DICPCG:  Solving for p, Initial residual = 0.00030293, Final residual = 9.33578e-07, No Iterations 59
time step continuity errors : sum local = 1.02413e-12, global = 1.73294e-13, cumulative = -7.13616e-12
ExecutionTime = 105.69 s  ClockTime = 695 s

Time = 0.0092

Courant Number mean: 0.000508168 max: 0.0164731
DILUPBiCG:  Solving for Ux, Initial residual = 0.000881182, Final residual = 1.9257e-09, No Iterations 1
DILUPBiCG:  Solving for Uy, Initial residual = 0.000744821, Final residual = 1.70532e-09, No Iterations 1
DILUPBiCG:  Solving for Uz, Initial residual = 0.000192161, Final residual = 3.75757e-10, No Iterations 1
DICPCG:  Solving for p, Initial residual = 0.00439319, Final residual = 9.65348e-07, No Iterations 182
time step continuity errors : sum local = 1.05473e-12, global = -1.08858e-14, cumulative = -7.14704e-12
DICPCG:  Solving for p, Initial residual = 0.0003004, Final residual = 9.97133e-07, No Iterations 58
time step continuity errors : sum local = 1.08496e-12, global = 1.71093e-13, cumulative = -6.97595e-12
ExecutionTime = 106.52 s  ClockTime = 701 s

Time = 0.0093

Courant Number mean: 0.000508151 max: 0.0164652
DILUPBiCG:  Solving for Ux, Initial residual = 0.000877787, Final residual = 1.92803e-09, No Iterations 1
DILUPBiCG:  Solving for Uy, Initial residual = 0.000741746, Final residual = 1.70877e-09, No Iterations 1
DILUPBiCG:  Solving for Uz, Initial residual = 0.000191393, Final residual = 3.74365e-10, No Iterations 1
DICPCG:  Solving for p, Initial residual = 0.0043302, Final residual = 9.85627e-07, No Iterations 180
time step continuity errors : sum local = 1.0682e-12, global = -3.69308e-15, cumulative = -6.97964e-12
DICPCG:  Solving for p, Initial residual = 0.00029441, Final residual = 9.97714e-07, No Iterations 57
time step continuity errors : sum local = 1.07689e-12, global = 1.55946e-13, cumulative = -6.8237e-12
ExecutionTime = 107.35 s  ClockTime = 706 s

Time = 0.0094

Courant Number mean: 0.000508135 max: 0.0164574
DILUPBiCG:  Solving for Ux, Initial residual = 0.000874468, Final residual = 1.93035e-09, No Iterations 1
DILUPBiCG:  Solving for Uy, Initial residual = 0.000738753, Final residual = 1.71231e-09, No Iterations 1
DILUPBiCG:  Solving for Uz, Initial residual = 0.000190637, Final residual = 3.72987e-10, No Iterations 1
DICPCG:  Solving for p, Initial residual = 0.00426777, Final residual = 9.58893e-07, No Iterations 182
time step continuity errors : sum local = 1.03096e-12, global = -1.05048e-14, cumulative = -6.8342e-12
DICPCG:  Solving for p, Initial residual = 0.000289395, Final residual = 9.63161e-07, No Iterations 58
time step continuity errors : sum local = 1.03139e-12, global = 1.57205e-13, cumulative = -6.677e-12
ExecutionTime = 108.18 s  ClockTime = 712 s

Time = 0.0095

Courant Number mean: 0.000508118 max: 0.0164495
DILUPBiCG:  Solving for Ux, Initial residual = 0.000871225, Final residual = 1.93264e-09, No Iterations 1
DILUPBiCG:  Solving for Uy, Initial residual = 0.000735826, Final residual = 1.71585e-09, No Iterations 1
DILUPBiCG:  Solving for Uz, Initial residual = 0.000189894, Final residual = 3.71615e-10, No Iterations 1
[...]
time step continuity errors : sum local = 9.87156e-13, global = -5.73555e-15, cumulative = -6.01558e-12
DICPCG:  Solving for p, Initial residual = 0.000268546, Final residual = 9.6544e-07, No Iterations 55
time step continuity errors : sum local = 9.87716e-13, global = 1.20152e-13, cumulative = -5.89543e-12
ExecutionTime = 113.64 s  ClockTime = 748 s

Time = 0.0101

Courant Number mean: 0.00050802 max: 0.0164022
DILUPBiCG:  Solving for Ux, Initial residual = 0.000853154, Final residual = 1.9476e-09, No Iterations 1
DILUPBiCG:  Solving for Uy, Initial residual = 0.000719501, Final residual = 1.73846e-09, No Iterations 1
DILUPBiCG:  Solving for Uz, Initial residual = 0.000185672, Final residual = 3.63604e-10, No Iterations 1
DICPCG:  Solving for p, Initial residual = 0.00390736, Final residual = 9.23822e-07, No Iterations 181
time step continuity errors : sum local = 9.41783e-13, global = 1.1457e-14, cumulative = -5.88397e-12
DICPCG:  Solving for p, Initial residual = 0.000265167, Final residual = 9.96163e-07, No Iterations 59
time step continuity errors : sum local = 1.01175e-12, global = 1.10706e-13, cumulative = -5.77327e-12
ExecutionTime = 114.48 s  ClockTime = 753 s

Time = 0.0102

Courant Number mean: 0.000508003 max: 0.0163943
DILUPBiCG:  Solving for Ux, Initial residual = 0.000850369, Final residual = 1.95022e-09, No Iterations 1
DILUPBiCG:  Solving for Uy, Initial residual = 0.000716972, Final residual = 1.74244e-09, No Iterations 1
DILUPBiCG:  Solving for Uz, Initial residual = 0.000185003, Final residual = 3.62305e-10, No Iterations 1
DICPCG:  Solving for p, Initial residual = 0.00386331, Final residual = 9.53434e-07, No Iterations 181
time step continuity errors : sum local = 9.64958e-13, global = -6.41945e-15, cumulative = -5.77969e-12
DICPCG:  Solving for p, Initial residual = 0.000263729, Final residual = 9.96143e-07, No Iterations 54
time step continuity errors : sum local = 1.00447e-12, global = 1.15178e-13, cumulative = -5.66451e-12
ExecutionTime = 115.24 s  ClockTime = 758 s

Time = 0.0103

Courant Number mean: 0.000507987 max: 0.0163863
DILUPBiCG:  Solving for Ux, Initial residual = 0.00084764, Final residual = 1.95316e-09, No Iterations 1
DILUPBiCG:  Solving for Uy, Initial residual = 0.000714487, Final residual = 1.74647e-09, No Iterations 1
DILUPBiCG:  Solving for Uz, Initial residual = 0.000184345, Final residual = 3.61007e-10, No Iterations 1
DICPCG:  Solving for p, Initial residual = 0.00381959, Final residual = 9.32148e-07, No Iterations 181
time step continuity errors : sum local = 9.36683e-13, global = 1.06101e-14, cumulative = -5.6539e-12
DICPCG:  Solving for p, Initial residual = 0.000261679, Final residual = 9.74608e-07, No Iterations 60
time step continuity errors : sum local = 9.75777e-13, global = 1.00702e-13, cumulative = -5.5532e-12
ExecutionTime = 116.1 s  ClockTime = 764 s

Time = 0.0104

Courant Number mean: 0.000507971 max: 0.0163784
DILUPBiCG:  Solving for Ux, Initial residual = 0.000844967, Final residual = 1.95603e-09, No Iterations 1
DILUPBiCG:  Solving for Uy, Initial residual = 0.000712045, Final residual = 1.75058e-09, No Iterations 1
DILUPBiCG:  Solving for Uz, Initial residual = 0.000183695, Final residual = 3.5972e-10, No Iterations 1
DICPCG:  Solving for p, Initial residual = 0.00377491, Final residual = 9.56135e-07, No Iterations 171
time step continuity errors : sum local = 9.54006e-13, global = 1.77514e-14, cumulative = -5.53545e-12
DICPCG:  Solving for p, Initial residual = 0.000258157, Final residual = 9.70121e-07, No Iterations 63
time step continuity errors : sum local = 9.64472e-13, global = 1.04148e-13, cumulative = -5.4313e-12
ExecutionTime = 116.89 s  ClockTime = 769 s

Time = 0.0105

Courant Number mean: 0.000507955 max: 0.0163705
DILUPBiCG:  Solving for Ux, Initial residual = 0.00084234, Final residual = 1.95893e-09, No Iterations 1
DILUPBiCG:  Solving for Uy, Initial residual = 0.000709641, Final residual = 1.7547e-09, No Iterations 1
DILUPBiCG:  Solving for Uz, Initial residual = 0.000183055, Final residual = 3.58436e-10, No Iterations 1
DICPCG:  Solving for p, Initial residual = 0.00373106, Final residual = 9.14251e-07, No Iterations 165
time step continuity errors : sum local = 9.05863e-13, global = 3.81597e-15, cumulative = -5.42748e-12
DICPCG:  Solving for p, Initial residual = 0.000256703, Final residual = 9.70878e-07, No Iterations 55
time step continuity errors : sum local = 9.58542e-13, global = 7.51367e-14, cumulative = -5.35235e-12
ExecutionTime = 117.62 s  ClockTime = 774 s

Time = 0.0106

Courant Number mean: 0.000507938 max: 0.0163625
DILUPBiCG:  Solving for Ux, Initial residual = 0.000839782, Final residual = 1.96178e-09, No Iterations 1
DILUPBiCG:  Solving for Uy, Initial residual = 0.000707279, Final residual = 1.7586e-09, No Iterations 1
DILUPBiCG:  Solving for Uz, Initial residual = 0.000182423, Final residual = 3.57167e-10, No Iterations 1
DICPCG:  Solving for p, Initial residual = 0.0036875, Final residual = 9.04228e-07, No Iterations 183
time step continuity errors : sum local = 8.89761e-13, global = 1.7414e-14, cumulative = -5.33493e-12
DICPCG:  Solving for p, Initial residual = 0.000253117, Final residual = 9.38422e-07, No Iterations 60
time step continuity errors : sum local = 9.2015e-13, global = 9.27171e-14, cumulative = -5.24221e-12
ExecutionTime = 118.42 s  ClockTime = 779 s

Time = 0.0107

Courant Number mean: 0.000507922 max: 0.0163546
DILUPBiCG:  Solving for Ux, Initial residual = 0.000837272, Final residual = 1.96474e-09, No Iterations 1
DILUPBiCG:  Solving for Uy, Initial residual = 0.000704966, Final residual = 1.76277e-09, No Iterations 1
DILUPBiCG:  Solving for Uz, Initial residual = 0.000181798, Final residual = 3.55893e-10, No Iterations 1
DICPCG:  Solving for p, Initial residual = 0.00365279, Final residual = 9.65482e-07, No Iterations 180
time step continuity errors : sum local = 9.43558e-13, global = -2.33258e-15, cumulative = -5.24455e-12
DICPCG:  Solving for p, Initial residual = 0.000255064, Final residual = 9.97923e-07, No Iterations 53
time step continuity errors : sum local = 9.71849e-13, global = 8.68014e-14, cumulative = -5.15775e-12
ExecutionTime = 119.18 s  ClockTime = 784 s

Time = 0.0108

Courant Number mean: 0.000507906 max: 0.0163466
DILUPBiCG:  Solving for Ux, Initial residual = 0.000834779, Final residual = 1.96775e-09, No Iterations 1
DILUPBiCG:  Solving for Uy, Initial residual = 0.000702698, Final residual = 1.76687e-09, No Iterations 1
DILUPBiCG:  Solving for Uz, Initial residual = 0.000181183, Final residual = 3.54667e-10, No Iterations 1
DICPCG:  Solving for p, Initial residual = 0.00360514, Final residual = 9.60712e-07, No Iterations 180
time step continuity errors : sum local = 9.32565e-13, global = 1.92493e-15, cumulative = -5.15582e-12
DICPCG:  Solving for p, Initial residual = 0.000247842, Final residual = 9.92681e-07, No Iterations 57
time step continuity errors : sum local = 9.60266e-13, global = 6.97589e-14, cumulative = -5.08606e-12
ExecutionTime = 120.03 s  ClockTime = 790 s

Time = 0.0109

Courant Number mean: 0.00050789 max: 0.0163386
DILUPBiCG:  Solving for Ux, Initial residual = 0.000832349, Final residual = 1.97094e-09, No Iterations 1
DILUPBiCG:  Solving for Uy, Initial residual = 0.000700455, Final residual = 1.77118e-09, No Iterations 1
DILUPBiCG:  Solving for Uz, Initial residual = 0.000180575, Final residual = 3.53433e-10, No Iterations 1
DICPCG:  Solving for p, Initial residual = 0.00356138, Final residual = 9.79428e-07, No Iterations 180
time step continuity errors : sum local = 9.44412e-13, global = 5.07091e-15, cumulative = -5.08099e-12
DICPCG:  Solving for p, Initial residual = 0.000244594, Final residual = 9.48134e-07, No Iterations 54
time step continuity errors : sum local = 9.11118e-13, global = 7.12217e-14, cumulative = -5.00977e-12
ExecutionTime = 120.81 s  ClockTime = 795 s

Time = 0.011

Courant Number mean: 0.000507874 max: 0.0163306
DILUPBiCG:  Solving for Ux, Initial residual = 0.000829967, Final residual = 1.97408e-09, No Iterations 1
DILUPBiCG:  Solving for Uy, Initial residual = 0.000698244, Final residual = 1.77558e-09, No Iterations 1
DILUPBiCG:  Solving for Uz, Initial residual = 0.000179973, Final residual = 3.52201e-10, No Iterations 1
DICPCG:  Solving for p, Initial residual = 0.00354302, Final residual = 8.92123e-07, No Iterations 181
time step continuity errors : sum local = 8.54562e-13, global = 1.08495e-14, cumulative = -4.99892e-12
DICPCG:  Solving for p, Initial residual = 0.000251171, Final residual = 9.85618e-07, No Iterations 55
time step continuity errors : sum local = 9.40912e-13, global = 6.6649e-14, cumulative = -4.93227e-12
ExecutionTime = 121.57 s  ClockTime = 800 s

Time = 0.0111

Courant Number mean: 0.000507859 max: 0.0163226
DILUPBiCG:  Solving for Ux, Initial residual = 0.000827632, Final residual = 1.97738e-09, No Iterations 1
DILUPBiCG:  Solving for Uy, Initial residual = 0.000696093, Final residual = 1.78012e-09, No Iterations 1
DILUPBiCG:  Solving for Uz, Initial residual = 0.000179377, Final residual = 3.50983e-10, No Iterations 1
DICPCG:  Solving for p, Initial residual = 0.00348699, Final residual = 9.72165e-07, No Iterations 177
time step continuity errors : sum local = 9.25168e-13, global = 1.33905e-14, cumulative = -4.91888e-12
DICPCG:  Solving for p, Initial residual = 0.000242723, Final residual = 9.67351e-07, No Iterations 58
time step continuity errors : sum local = 9.17508e-13, global = 6.32459e-14, cumulative = -4.85563e-12
ExecutionTime = 122.46 s  ClockTime = 806 s

Time = 0.0112

Courant Number mean: 0.000507843 max: 0.0163146
DILUPBiCG:  Solving for Ux, Initial residual = 0.000825346, Final residual = 1.9806e-09, No Iterations 1
DILUPBiCG:  Solving for Uy, Initial residual = 0.000693977, Final residual = 1.78457e-09, No Iterations 1
DILUPBiCG:  Solving for Uz, Initial residual = 0.00017879, Final residual = 3.49803e-10, No Iterations 1
DICPCG:  Solving for p, Initial residual = 0.00344812, Final residual = 9.76957e-07, No Iterations 182
time step continuity errors : sum local = 9.23756e-13, global = 1.68766e-14, cumulative = -4.83876e-12
DICPCG:  Solving for p, Initial residual = 0.000239596, Final residual = 9.61065e-07, No Iterations 60
time step continuity errors : sum local = 9.05723e-13, global = 6.94446e-14, cumulative = -4.76931e-12
ExecutionTime = 123.36 s  ClockTime = 812 s

Time = 0.0113

Courant Number mean: 0.000507827 max: 0.0163066
DILUPBiCG:  Solving for Ux, Initial residual = 0.000823112, Final residual = 1.98409e-09, No Iterations 1
DILUPBiCG:  Solving for Uy, Initial residual = 0.000691893, Final residual = 1.78922e-09, No Iterations 1
DILUPBiCG:  Solving for Uz, Initial residual = 0.000178211, Final residual = 3.48635e-10, No Iterations 1
DICPCG:  Solving for p, Initial residual = 0.00341043, Final residual = 9.97979e-07, No Iterations 177
time step continuity errors : sum local = 9.37638e-13, global = 1.62755e-14, cumulative = -4.75304e-12
DICPCG:  Solving for p, Initial residual = 0.000239236, Final residual = 9.88832e-07, No Iterations 57
time step continuity errors : sum local = 9.25995e-13, global = 5.29861e-14, cumulative = -4.70005e-12
ExecutionTime = 124.17 s  ClockTime = 818 s

Time = 0.0114

Courant Number mean: 0.000507811 max: 0.0162986
DILUPBiCG:  Solving for Ux, Initial residual = 0.000820881, Final residual = 1.98762e-09, No Iterations 1
DILUPBiCG:  Solving for Uy, Initial residual = 0.000689813, Final residual = 1.79392e-09, No Iterations 1
DILUPBiCG:  Solving for Uz, Initial residual = 0.000177638, Final residual = 3.47461e-10, No Iterations 1
DICPCG:  Solving for p, Initial residual = 0.00336721, Final residual = 9.79875e-07, No Iterations 181
time step continuity errors : sum local = 9.14838e-13, global = 1.40533e-14, cumulative = -4.686e-12
DICPCG:  Solving for p, Initial residual = 0.00023406, Final residual = 9.88249e-07, No Iterations 59
time step continuity errors : sum local = 9.19663e-13, global = 6.19858e-14, cumulative = -4.62401e-12
ExecutionTime = 125.01 s  ClockTime = 823 s

Time = 0.0115

Courant Number mean: 0.000507795 max: 0.0162905
DILUPBiCG:  Solving for Ux, Initial residual = 0.000818712, Final residual = 1.99097e-09, No Iterations 1
DILUPBiCG:  Solving for Uy, Initial residual = 0.000687783, Final residual = 1.79866e-09, No Iterations 1
DILUPBiCG:  Solving for Uz, Initial residual = 0.000177071, Final residual = 3.46285e-10, No Iterations 1
DICPCG:  Solving for p, Initial residual = 0.00333186, Final residual = 9.27946e-07, No Iterations 176
time step continuity errors : sum local = 8.60976e-13, global = 1.06028e-14, cumulative = -4.61341e-12
DICPCG:  Solving for p, Initial residual = 0.000232205, Final residual = 9.98696e-07, No Iterations 54
time step continuity errors : sum local = 9.23651e-13, global = 5.16174e-14, cumulative = -4.56179e-12
ExecutionTime = 125.84 s  ClockTime = 829 s

Time = 0.0116

Courant Number mean: 0.00050778 max: 0.0162825
DILUPBiCG:  Solving for Ux, Initial residual = 0.000816599, Final residual = 1.99407e-09, No Iterations 1
DILUPBiCG:  Solving for Uy, Initial residual = 0.000685787, Final residual = 1.80346e-09, No Iterations 1
DILUPBiCG:  Solving for Uz, Initial residual = 0.000176511, Final residual = 3.45119e-10, No Iterations 1
DICPCG:  Solving for p, Initial residual = 0.00330416, Final residual = 9.53974e-07, No Iterations 181
time step continuity errors : sum local = 8.79676e-13, global = 1.06377e-14, cumulative = -4.55115e-12
DICPCG:  Solving for p, Initial residual = 0.000233819, Final residual = 9.59658e-07, No Iterations 54
time step continuity errors : sum local = 8.82082e-13, global = 4.82483e-14, cumulative = -4.50291e-12
ExecutionTime = 126.68 s  ClockTime = 834 s

Time = 0.0117

Courant Number mean: 0.000507764 max: 0.0162744
DILUPBiCG:  Solving for Ux, Initial residual = 0.000814442, Final residual = 1.99848e-09, No Iterations 1
DILUPBiCG:  Solving for Uy, Initial residual = 0.00068382, Final residual = 1.80823e-09, No Iterations 1
DILUPBiCG:  Solving for Uz, Initial residual = 0.000175953, Final residual = 3.43986e-10, No Iterations 1
DICPCG:  Solving for p, Initial residual = 0.00326157, Final residual = 9.07283e-07, No Iterations 180
time step continuity errors : sum local = 8.31502e-13, global = 4.8655e-15, cumulative = -4.49804e-12
DICPCG:  Solving for p, Initial residual = 0.000227803, Final residual = 9.45258e-07, No Iterations 53
time step continuity errors : sum local = 8.63566e-13, global = 5.15465e-14, cumulative = -4.44649e-12
ExecutionTime = 127.49 s  ClockTime = 840 s

Time = 0.0118

Courant Number mean: 0.000507748 max: 0.0162663
DILUPBiCG:  Solving for Ux, Initial residual = 0.000812343, Final residual = 2.00251e-09, No Iterations 1
DILUPBiCG:  Solving for Uy, Initial residual = 0.000681883, Final residual = 1.81306e-09, No Iterations 1
DILUPBiCG:  Solving for Uz, Initial residual = 0.000175404, Final residual = 3.42849e-10, No Iterations 1
DICPCG:  Solving for p, Initial residual = 0.00324161, Final residual = 9.14613e-07, No Iterations 181
time step continuity errors : sum local = 8.33148e-13, global = 1.09758e-14, cumulative = -4.43552e-12
DICPCG:  Solving for p, Initial residual = 0.00023246, Final residual = 9.51546e-07, No Iterations 53
time step continuity errors : sum local = 8.64065e-13, global = 4.54601e-14, cumulative = -4.39006e-12
ExecutionTime = 128.33 s  ClockTime = 845 s

Time = 0.0119

Courant Number mean: 0.000507733 max: 0.0162583
DILUPBiCG:  Solving for Ux, Initial residual = 0.000810237, Final residual = 2.00702e-09, No Iterations 1
DILUPBiCG:  Solving for Uy, Initial residual = 0.000679982, Final residual = 1.81793e-09, No Iterations 1
DILUPBiCG:  Solving for Uz, Initial residual = 0.000174861, Final residual = 3.41742e-10, No Iterations 1
DICPCG:  Solving for p, Initial residual = 0.00319395, Final residual = 9.25905e-07, No Iterations 181
time step continuity errors : sum local = 8.38391e-13, global = 1.22324e-14, cumulative = -4.37783e-12
DICPCG:  Solving for p, Initial residual = 0.000225451, Final residual = 9.8768e-07, No Iterations 53
time step continuity errors : sum local = 8.9157e-13, global = 4.57842e-14, cumulative = -4.33204e-12
ExecutionTime = 129.15 s  ClockTime = 851 s

Time = 0.012

Courant Number mean: 0.000507717 max: 0.0162502
DILUPBiCG:  Solving for Ux, Initial residual = 0.000808233, Final residual = 2.0111e-09, No Iterations 1
DILUPBiCG:  Solving for Uy, Initial residual = 0.000678116, Final residual = 1.82301e-09, No Iterations 1
DILUPBiCG:  Solving for Uz, Initial residual = 0.000174327, Final residual = 3.40624e-10, No Iterations 1
DICPCG:  Solving for p, Initial residual = 0.00316493, Final residual = 9.90226e-07, No Iterations 181
time step continuity errors : sum local = 8.91362e-13, global = 1.48024e-14, cumulative = -4.31724e-12
DICPCG:  Solving for p, Initial residual = 0.000228304, Final residual = 9.7042e-07, No Iterations 57
time step continuity errors : sum local = 8.7086e-13, global = 4.78094e-14, cumulative = -4.26943e-12
ExecutionTime = 129.98 s  ClockTime = 856 s

Time = 0.0121

Courant Number mean: 0.000507702 max: 0.0162421
DILUPBiCG:  Solving for Ux, Initial residual = 0.000806263, Final residual = 2.01491e-09, No Iterations 1
DILUPBiCG:  Solving for Uy, Initial residual = 0.000676261, Final residual = 1.82808e-09, No Iterations 1
DILUPBiCG:  Solving for Uz, Initial residual = 0.000173793, Final residual = 3.39523e-10, No Iterations 1
DICPCG:  Solving for p, Initial residual = 0.00313975, Final residual = 9.6099e-07, No Iterations 178
time step continuity errors : sum local = 8.60002e-13, global = 1.8952e-14, cumulative = -4.25048e-12
DICPCG:  Solving for p, Initial residual = 0.000228606, Final residual = 9.67484e-07, No Iterations 59
time step continuity errors : sum local = 8.63192e-13, global = 4.4385e-14, cumulative = -4.20609e-12
ExecutionTime = 130.84 s  ClockTime = 862 s

Time = 0.0122

Courant Number mean: 0.000507686 max: 0.016234
DILUPBiCG:  Solving for Ux, Initial residual = 0.000804324, Final residual = 2.01831e-09, No Iterations 1
DILUPBiCG:  Solving for Uy, Initial residual = 0.000674432, Final residual = 1.83308e-09, No Iterations 1
DILUPBiCG:  Solving for Uz, Initial residual = 0.000173264, Final residual = 3.38404e-10, No Iterations 1
DICPCG:  Solving for p, Initial residual = 0.00310207, Final residual = 9.88017e-07, No Iterations 176
time step continuity errors : sum local = 8.79071e-13, global = 1.78579e-14, cumulative = -4.18823e-12
DICPCG:  Solving for p, Initial residual = 0.00022183, Final residual = 9.91954e-07, No Iterations 60
time step continuity errors : sum local = 8.79912e-13, global = 4.4233e-14, cumulative = -4.144e-12
ExecutionTime = 131.67 s  ClockTime = 868 s

Time = 0.0123

Courant Number mean: 0.000507671 max: 0.0162258
DILUPBiCG:  Solving for Ux, Initial residual = 0.000802403, Final residual = 2.02221e-09, No Iterations 1
DILUPBiCG:  Solving for Uy, Initial residual = 0.000672622, Final residual = 1.83858e-09, No Iterations 1
DILUPBiCG:  Solving for Uz, Initial residual = 0.000172744, Final residual = 3.37317e-10, No Iterations 1
DICPCG:  Solving for p, Initial residual = 0.00306239, Final residual = 9.57862e-07, No Iterations 181
time step continuity errors : sum local = 8.47352e-13, global = 1.46307e-14, cumulative = -4.12937e-12
DICPCG:  Solving for p, Initial residual = 0.000217398, Final residual = 9.96137e-07, No Iterations 54
time step continuity errors : sum local = 8.78576e-13, global = 3.80171e-14, cumulative = -4.09135e-12
ExecutionTime = 132.49 s  ClockTime = 873 s

Time = 0.0124

Courant Number mean: 0.000507656 max: 0.0162177
DILUPBiCG:  Solving for Ux, Initial residual = 0.000800513, Final residual = 2.02631e-09, No Iterations 1
DILUPBiCG:  Solving for Uy, Initial residual = 0.000670836, Final residual = 1.8441e-09, No Iterations 1
DILUPBiCG:  Solving for Uz, Initial residual = 0.000172228, Final residual = 3.36243e-10, No Iterations 1
