/*---------------------------------------------------------------------------*\
| =========                 |                                                 |
| \\      /  F ield         | OpenFOAM: The Open Source CFD Toolbox           |
|  \\    /   O peration     | Version:  2.1.1                                 |
|   \\  /    A nd           | Web:      www.OpenFOAM.org                      |
|    \\/     M anipulation  |                                                 |
\*---------------------------------------------------------------------------*/
Build  : 2.1.1-221db2718bbb
Exec   : ideasUnvToFoam Mesh_2.unv
Date   : Sep 27 2018
Time   : 20:23:17
Host   : "yarik-VirtualBox"
PID    : 15007
Case   : /home/yarik/Documents/diploma/lab2
nProcs : 1
sigFpe : Enabling floating point exception trapping (FOAM_SIGFPE).
fileModificationChecking : Monitoring run-time modified files using timeStampMaster
allowSystemOperations : Disallowing user-supplied system call operations

// * * * * * * * * * * * * * * * * * * * * * * * * * * * * * * * * * * * * * //
Create time

Processing tag:164
Starting reading units at line 3.
l:1
units:"  SI: Meter (newton)"
unitType:2
Unit factors:
    Length scale       : 1
    Force scale        : 1
    Temperature scale  : 1
    Temperature offset : 273.15


Processing tag:2420
Skipping tag 2420 on line 9
Skipping section at line 9.

Processing tag:2411
Starting reading points at line 20.
Read 16894 points.

Processing tag:2412
Starting reading cells at line 33811.
First occurrence of element type 11 for cell 1 at line 33812
First occurrence of element type 41 for cell 511 at line 35342
First occurrence of element type 111 for cell 14583 at line 63486
Read 77677 cells and 14072 boundary faces.

Processing tag:2467
Starting reading patches at line 218842.
For group 1 named inlet trying to read 307 patch face indices.
For group 2 named inpipe trying to read 1930 patch face indices.
For group 3 named forward trying to read 1537 patch face indices.
For group 4 named top trying to read 1490 patch face indices.
For group 5 named outpipe trying to read 1930 patch face indices.
For group 6 named right trying to read 1772 patch face indices.
For group 7 named left trying to read 1772 patch face indices.
For group 8 named bottom trying to read 1490 patch face indices.
For group 9 named back trying to read 1537 patch face indices.
For group 10 named outlet trying to read 307 patch face indices.

Sorting boundary faces according to group (patch)
0: inlet is patch
1: inpipe is patch
2: forward is patch
3: top is patch
4: outpipe is patch
5: right is patch
6: left is patch
7: bottom is patch
8: back is patch
9: outlet is patch

Constructing mesh with non-default patches of size:
    inlet	307
    inpipe	1930
    forward	1537
    top	1490
    outpipe	1930
    right	1772
    left	1772
    bottom	1490
    back	1537
    outlet	307

End

