/*---------------------------------------------------------------------------*\
| =========                 |                                                 |
| \\      /  F ield         | OpenFOAM: The Open Source CFD Toolbox           |
|  \\    /   O peration     | Version:  2.1.1                                 |
|   \\  /    A nd           | Web:      www.OpenFOAM.org                      |
|    \\/     M anipulation  |                                                 |
\*---------------------------------------------------------------------------*/
Build  : 2.1.1-221db2718bbb
Exec   : transformPoints -scale (0.001 0.001 0.001)
Date   : Sep 27 2018
Time   : 21:05:16
Host   : "yarik-VirtualBox"
PID    : 15267
Case   : /home/yarik/Documents/diploma/lab3
nProcs : 1
sigFpe : Enabling floating point exception trapping (FOAM_SIGFPE).
fileModificationChecking : Monitoring run-time modified files using timeStampMaster
allowSystemOperations : Disallowing user-supplied system call operations

// * * * * * * * * * * * * * * * * * * * * * * * * * * * * * * * * * * * * * //
Create time

Scaling points by (0.001 0.001 0.001)
Writing points into directory "/home/yarik/Documents/diploma/lab3/constant/polyMesh"

